C10H15NO
APtclcactv12211717273D 0   0.00000     0.00000
 
 27 27  0  0  1  0  0  0  0  0999 V2000
    0.6903   -1.1428   -0.0198 C   0  0  2  0  0  0  0  0  0  0  0  0
    1.7007   -0.1233   -0.5495 C   0  0  2  0  0  0  0  0  0  0  0  0
   -1.5665   -0.8398   -1.0592 C   0  0  0  0  0  0  0  0  0  0  0  0
   -1.0782    0.3217    0.9767 C   0  0  0  0  0  0  0  0  0  0  0  0
   -2.8321   -0.2839   -1.0728 C   0  0  0  0  0  0  0  0  0  0  0  0
   -2.3438    0.8776    0.9631 C   0  0  0  0  0  0  0  0  0  0  0  0
   -3.2206    0.5749   -0.0618 C   0  0  0  0  0  0  0  0  0  0  0  0
    3.1015   -0.7386   -0.5345 C   0  0  0  0  0  0  0  0  0  0  0  0
    2.1407    2.2551   -0.4389 C   0  0  0  0  0  0  0  0  0  0  0  0
    1.0445   -0.7634    1.9377 H   0  0  0  0  0  0  0  0  0  0  0  0
    0.7641    1.2246    0.6932 H   0  0  0  0  0  0  0  0  0  0  0  0
   -0.6895   -0.5368   -0.0346 C   0  0  0  0  0  0  0  0  0  0  0  0
    1.0367   -1.5059    1.3182 O   0  0  0  0  0  0  0  0  0  0  0  0
    1.6821    1.0729    0.3029 N   0  0  0  0  0  0  0  0  0  0  0  0
    0.7041   -2.0304   -0.6523 H   0  0  0  0  0  0  0  0  0  0  0  0
   -1.2645   -1.5143   -1.8468 H   0  0  0  0  0  0  0  0  0  0  0  0
   -0.3930    0.5585    1.7772 H   0  0  0  0  0  0  0  0  0  0  0  0
    1.4365    0.1536   -1.5701 H   0  0  0  0  0  0  0  0  0  0  0  0
   -3.5171   -0.5204   -1.8736 H   0  0  0  0  0  0  0  0  0  0  0  0
   -2.6476    1.5480    1.7534 H   0  0  0  0  0  0  0  0  0  0  0  0
    3.3658   -1.0155    0.4861 H   0  0  0  0  0  0  0  0  0  0  0  0
    3.1153   -1.6262   -1.1670 H   0  0  0  0  0  0  0  0  0  0  0  0
    3.8214   -0.0123   -0.9119 H   0  0  0  0  0  0  0  0  0  0  0  0
   -4.2092    1.0098   -0.0728 H   0  0  0  0  0  0  0  0  0  0  0  0
    3.1598    2.0914   -0.7892 H   0  0  0  0  0  0  0  0  0  0  0  0
    1.4855    2.4246   -1.2933 H   0  0  0  0  0  0  0  0  0  0  0  0
    2.1171    3.1264    0.2156 H   0  0  0  0  0  0  0  0  0  0  0  0
  1 12  1  0  0  0  0
  3 12  1  0  0  0  0
  4 12  2  0  0  0  0
  1  2  1  0  0  0  0
  1 13  1  0  0  0  0
  3  5  2  0  0  0  0
  4  6  1  0  0  0  0
  2 14  1  0  0  0  0
  2  8  1  0  0  0  0
  5  7  1  0  0  0  0
  9 14  1  0  0  0  0
  6  7  2  0  0  0  0
  1 15  1  0  0  0  0
  3 16  1  0  0  0  0
  4 17  1  0  0  0  0
  2 18  1  0  0  0  0
 10 13  1  0  0  0  0
  5 19  1  0  0  0  0
  6 20  1  0  0  0  0
 11 14  1  0  0  0  0
  8 21  1  0  0  0  0
  8 22  1  0  0  0  0
  8 23  1  0  0  0  0
  7 24  1  0  0  0  0
  9 25  1  0  0  0  0
  9 26  1  0  0  0  0
  9 27  1  0  0  0  0
M  END
$$$$
