C12H10O3
APtclcactv12111704573D 0   0.00000     0.00000
 
 25 26  0  0  0  0  0  0  0  0999 V2000
    0.5966   -1.0285   -0.0001 C   0  0  0  0  0  0  0  0  0  0  0  0
   -0.4003   -0.0950    0.0002 C   0  0  0  0  0  0  0  0  0  0  0  0
   -0.1036    1.2717    0.0004 C   0  0  0  0  0  0  0  0  0  0  0  0
    1.1845    1.7074    0.0002 C   0  0  0  0  0  0  0  0  0  0  0  0
    2.2362    0.7744    0.0003 C   0  0  0  0  0  0  0  0  0  0  0  0
    3.5783    1.1897   -0.0004 C   0  0  0  0  0  0  0  0  0  0  0  0
    4.5718    0.2589   -0.0006 C   0  0  0  0  0  0  0  0  0  0  0  0
    4.2788   -1.1032   -0.0001 C   0  0  0  0  0  0  0  0  0  0  0  0
    2.9905   -1.5429    0.0005 C   0  0  0  0  0  0  0  0  0  0  0  0
    1.9380   -0.6117    0.0003 C   0  0  0  0  0  0  0  0  0  0  0  0
   -1.6975   -0.4995   -0.0001 O   0  0  0  0  0  0  0  0  0  0  0  0
   -2.6959    0.5229    0.0003 C   0  0  0  0  0  0  0  0  0  0  0  0
   -4.0634   -0.1103   -0.0002 C   0  0  0  0  0  0  0  0  0  0  0  0
   -4.1719   -1.3137   -0.0007 O   0  0  0  0  0  0  0  0  0  0  0  0
   -5.1609    0.6625    0.0001 O   0  0  0  0  0  0  0  0  0  0  0  0
    0.3550   -2.0811    0.0040 H   0  0  0  0  0  0  0  0  0  0  0  0
   -0.9090    1.9912    0.0003 H   0  0  0  0  0  0  0  0  0  0  0  0
    1.3988    2.7660   -0.0004 H   0  0  0  0  0  0  0  0  0  0  0  0
    3.8206    2.2421   -0.0011 H   0  0  0  0  0  0  0  0  0  0  0  0
    5.6025    0.5812   -0.0015 H   0  0  0  0  0  0  0  0  0  0  0  0
    5.0858   -1.8210   -0.0007 H   0  0  0  0  0  0  0  0  0  0  0  0
    2.7784   -2.6019    0.0005 H   0  0  0  0  0  0  0  0  0  0  0  0
   -2.5822    1.1415    0.8905 H   0  0  0  0  0  0  0  0  0  0  0  0
   -2.5820    1.1422   -0.8895 H   0  0  0  0  0  0  0  0  0  0  0  0
   -6.0159    0.2108   -0.0002 H   0  0  0  0  0  0  0  0  0  0  0  0
  1  2  2  0  0  0  0
  2  3  1  0  0  0  0
  3  4  2  0  0  0  0
  4  5  1  0  0  0  0
  5  6  2  0  0  0  0
  6  7  1  0  0  0  0
  7  8  2  0  0  0  0
  8  9  1  0  0  0  0
  9 10  2  0  0  0  0
  1 10  1  0  0  0  0
  5 10  1  0  0  0  0
  2 11  1  0  0  0  0
 11 12  1  0  0  0  0
 12 13  1  0  0  0  0
 13 14  2  0  0  0  0
 13 15  1  0  0  0  0
  1 16  1  0  0  0  0
  3 17  1  0  0  0  0
  4 18  1  0  0  0  0
  6 19  1  0  0  0  0
  7 20  1  0  0  0  0
  8 21  1  0  0  0  0
  9 22  1  0  0  0  0
 12 23  1  0  0  0  0
 12 24  1  0  0  0  0
 15 25  1  0  0  0  0
M  END
$$$$
