C9H18
APtclcactv12151716513D 0   0.00000     0.00000
 
 27 27  0  0  0  0  0  0  0  0999 V2000
   -1.3147    0.2516    1.4913 C   0  0  0  0  0  0  0  0  0  0  0  0
   -1.1250    0.2722   -0.0268 C   0  0  0  0  0  0  0  0  0  0  0  0
    0.1532    1.0395   -0.3707 C   0  0  0  0  0  0  0  0  0  0  0  0
    1.3528    0.3514    0.2839 C   0  0  0  0  0  0  0  0  0  0  0  0
    1.4638   -1.0834   -0.2357 C   0  0  0  0  0  0  0  0  0  0  0  0
    0.1856   -1.8507    0.1083 C   0  0  0  0  0  0  0  0  0  0  0  0
   -1.0140   -1.1626   -0.5463 C   0  0  0  0  0  0  0  0  0  0  0  0
    2.6310    1.1187   -0.0600 C   0  0  0  0  0  0  0  0  0  0  0  0
   -2.3246    0.9602   -0.6813 C   0  0  0  0  0  0  0  0  0  0  0  0
   -1.3938    1.2738    1.8614 H   0  0  0  0  0  0  0  0  0  0  0  0
   -2.2253   -0.2950    1.7363 H   0  0  0  0  0  0  0  0  0  0  0  0
   -0.4601   -0.2385    1.9576 H   0  0  0  0  0  0  0  0  0  0  0  0
    0.2883    1.0541   -1.4522 H   0  0  0  0  0  0  0  0  0  0  0  0
    0.0741    2.0616   -0.0006 H   0  0  0  0  0  0  0  0  0  0  0  0
    1.2177    0.3368    1.3654 H   0  0  0  0  0  0  0  0  0  0  0  0
    1.5989   -1.0688   -1.3172 H   0  0  0  0  0  0  0  0  0  0  0  0
    2.3184   -1.5736    0.2307 H   0  0  0  0  0  0  0  0  0  0  0  0
    0.2647   -2.8729   -0.2619 H   0  0  0  0  0  0  0  0  0  0  0  0
    0.0504   -1.8653    1.1898 H   0  0  0  0  0  0  0  0  0  0  0  0
   -1.9247   -1.7093   -0.3013 H   0  0  0  0  0  0  0  0  0  0  0  0
   -0.8789   -1.1480   -1.6278 H   0  0  0  0  0  0  0  0  0  0  0  0
    2.5519    2.1409    0.3101 H   0  0  0  0  0  0  0  0  0  0  0  0
    3.4856    0.6285    0.4063 H   0  0  0  0  0  0  0  0  0  0  0  0
    2.7661    1.1333   -1.1415 H   0  0  0  0  0  0  0  0  0  0  0  0
   -2.4037    1.9824   -0.3112 H   0  0  0  0  0  0  0  0  0  0  0  0
   -2.1895    0.9748   -1.7628 H   0  0  0  0  0  0  0  0  0  0  0  0
   -3.2353    0.4136   -0.4363 H   0  0  0  0  0  0  0  0  0  0  0  0
  1  2  1  0  0  0  0
  2  3  1  0  0  0  0
  3  4  1  0  0  0  0
  4  5  1  0  0  0  0
  5  6  1  0  0  0  0
  6  7  1  0  0  0  0
  2  7  1  0  0  0  0
  4  8  1  0  0  0  0
  2  9  1  0  0  0  0
  1 10  1  0  0  0  0
  1 11  1  0  0  0  0
  1 12  1  0  0  0  0
  3 13  1  0  0  0  0
  3 14  1  0  0  0  0
  4 15  1  0  0  0  0
  5 16  1  0  0  0  0
  5 17  1  0  0  0  0
  6 18  1  0  0  0  0
  6 19  1  0  0  0  0
  7 20  1  0  0  0  0
  7 21  1  0  0  0  0
  8 22  1  0  0  0  0
  8 23  1  0  0  0  0
  8 24  1  0  0  0  0
  9 25  1  0  0  0  0
  9 26  1  0  0  0  0
  9 27  1  0  0  0  0
M  END
$$$$
