C10H22O12
APtclcactv12211717273D 0   0.00000     0.00000
 
 44 39  0  0  0  0  0  0  0  0999 V2000
  -29.6980   -0.1147   -0.0088 C   0  0  0  0  0  0  0  0  0  0  0  0
  -30.9210    0.5409    0.5792 C   0  0  0  0  0  0  0  0  0  0  0  0
  -28.8703    0.5540   -0.5812 O   0  0  0  0  0  0  0  0  0  0  0  0
  -29.5255   -1.4407    0.1082 O   0  0  0  0  0  0  0  0  0  0  0  0
  -16.2481    0.0213   -0.0403 C   0  0  0  0  0  0  0  0  0  0  0  0
  -17.4711    0.6768    0.5477 C   0  0  0  0  0  0  0  0  0  0  0  0
  -15.4204    0.6900   -0.6127 O   0  0  0  0  0  0  0  0  0  0  0  0
  -16.0757   -1.3048    0.0767 O   0  0  0  0  0  0  0  0  0  0  0  0
   -2.7983    0.1572   -0.0719 C   0  0  0  0  0  0  0  0  0  0  0  0
   -4.0212    0.8127    0.5161 C   0  0  0  0  0  0  0  0  0  0  0  0
   -1.9706    0.8259   -0.6443 O   0  0  0  0  0  0  0  0  0  0  0  0
   -2.6258   -1.1688    0.0451 O   0  0  0  0  0  0  0  0  0  0  0  0
   10.6516    0.2931   -0.1034 C   0  0  0  0  0  0  0  0  0  0  0  0
    9.4287    0.9487    0.4846 C   0  0  0  0  0  0  0  0  0  0  0  0
   11.4793    0.9618   -0.6758 O   0  0  0  0  0  0  0  0  0  0  0  0
   10.8241   -1.0329    0.0135 O   0  0  0  0  0  0  0  0  0  0  0  0
   24.8655   -0.4378   -0.6119 C   0  0  0  0  0  0  0  0  0  0  0  0
   23.5665    0.0304    0.0470 C   0  0  0  0  0  0  0  0  0  0  0  0
   23.6171   -0.2448    1.4484 O   0  0  0  0  0  0  0  0  0  0  0  0
   23.4086    1.4360   -0.1569 O   0  0  0  0  0  0  0  0  0  0  0  0
   25.9793    0.1674    0.0478 O   0  0  0  0  0  0  0  0  0  0  0  0
   24.9661   -1.8595   -0.5093 O   0  0  0  0  0  0  0  0  0  0  0  0
  -31.7166    0.5599   -0.1655 H   0  0  0  0  0  0  0  0  0  0  0  0
  -31.2524   -0.0238    1.4506 H   0  0  0  0  0  0  0  0  0  0  0  0
  -30.6784    1.5607    0.8779 H   0  0  0  0  0  0  0  0  0  0  0  0
  -28.7257   -1.8157   -0.2851 H   0  0  0  0  0  0  0  0  0  0  0  0
  -18.2667    0.6958   -0.1971 H   0  0  0  0  0  0  0  0  0  0  0  0
  -17.8025    0.1121    1.4191 H   0  0  0  0  0  0  0  0  0  0  0  0
  -17.2285    1.6966    0.8464 H   0  0  0  0  0  0  0  0  0  0  0  0
  -15.2758   -1.6798   -0.3166 H   0  0  0  0  0  0  0  0  0  0  0  0
   -4.8168    0.8318   -0.2287 H   0  0  0  0  0  0  0  0  0  0  0  0
   -4.3527    0.2480    1.3875 H   0  0  0  0  0  0  0  0  0  0  0  0
   -3.7786    1.8326    0.8148 H   0  0  0  0  0  0  0  0  0  0  0  0
   -1.8259   -1.5439   -0.3482 H   0  0  0  0  0  0  0  0  0  0  0  0
    8.6331    0.9677   -0.2602 H   0  0  0  0  0  0  0  0  0  0  0  0
    9.0972    0.3839    1.3560 H   0  0  0  0  0  0  0  0  0  0  0  0
    9.6712    1.9685    0.7833 H   0  0  0  0  0  0  0  0  0  0  0  0
   11.6239   -1.4080   -0.3797 H   0  0  0  0  0  0  0  0  0  0  0  0
   24.8646   -0.1485   -1.6628 H   0  0  0  0  0  0  0  0  0  0  0  0
   22.7229   -0.4981   -0.3968 H   0  0  0  0  0  0  0  0  0  0  0  0
   24.3452    0.1940    1.9093 H   0  0  0  0  0  0  0  0  0  0  0  0
   22.6042    1.8024    0.2351 H   0  0  0  0  0  0  0  0  0  0  0  0
   26.0432   -0.0470    0.9886 H   0  0  0  0  0  0  0  0  0  0  0  0
   25.7674   -2.2269   -0.9070 H   0  0  0  0  0  0  0  0  0  0  0  0
  1  2  1  0  0  0  0
  1  3  2  0  0  0  0
  1  4  1  0  0  0  0
  5  6  1  0  0  0  0
  5  7  2  0  0  0  0
  5  8  1  0  0  0  0
  9 10  1  0  0  0  0
  9 11  2  0  0  0  0
  9 12  1  0  0  0  0
 13 14  1  0  0  0  0
 13 15  2  0  0  0  0
 13 16  1  0  0  0  0
 17 18  1  0  0  0  0
 18 19  1  0  0  0  0
 18 20  1  0  0  0  0
 17 21  1  0  0  0  0
 17 22  1  0  0  0  0
  2 23  1  0  0  0  0
  2 24  1  0  0  0  0
  2 25  1  0  0  0  0
  4 26  1  0  0  0  0
  6 27  1  0  0  0  0
  6 28  1  0  0  0  0
  6 29  1  0  0  0  0
  8 30  1  0  0  0  0
 10 31  1  0  0  0  0
 10 32  1  0  0  0  0
 10 33  1  0  0  0  0
 12 34  1  0  0  0  0
 14 35  1  0  0  0  0
 14 36  1  0  0  0  0
 14 37  1  0  0  0  0
 16 38  1  0  0  0  0
 17 39  1  0  0  0  0
 18 40  1  0  0  0  0
 19 41  1  0  0  0  0
 20 42  1  0  0  0  0
 21 43  1  0  0  0  0
 22 44  1  0  0  0  0
M  END
$$$$
