C2H2Cl4
APtclcactv12101715333D 0   0.00000     0.00000
 
  8  7  0  0  0  0  0  0  0  0999 V2000
   -0.4816    1.5351    0.8609 Cl  0  0  0  0  0  0  0  0  0  0  0  0
   -0.5800    0.4988   -0.6112 C   0  0  0  0  0  0  0  0  0  0  0  0
    0.5800   -0.4988   -0.6112 C   0  0  0  0  0  0  0  0  0  0  0  0
    2.1440    0.3983   -0.6112 Cl  0  0  0  0  0  0  0  0  0  0  0  0
    0.4816   -1.5351    0.8609 Cl  0  0  0  0  0  0  0  0  0  0  0  0
   -2.1440   -0.3983   -0.6112 Cl  0  0  0  0  0  0  0  0  0  0  0  0
   -0.5205    1.1253   -1.5012 H   0  0  0  0  0  0  0  0  0  0  0  0
    0.5205   -1.1253   -1.5012 H   0  0  0  0  0  0  0  0  0  0  0  0
  1  2  1  0  0  0  0
  2  3  1  0  0  0  0
  3  4  1  0  0  0  0
  3  5  1  0  0  0  0
  2  6  1  0  0  0  0
  2  7  1  0  0  0  0
  3  8  1  0  0  0  0
M  END
$$$$
