C2Cl3F3
APtclcactv12101715353D 0   0.00000     0.00000
 
  8  7  0  0  0  0  0  0  0  0999 V2000
   -0.6441   -1.8013    0.3815 Cl  0  0  0  0  0  0  0  0  0  0  0  0
   -0.5498   -0.1479   -0.3314 C   0  0  0  0  0  0  0  0  0  0  0  0
    0.6785    0.5770    0.2224 C   0  0  0  0  0  0  0  0  0  0  0  0
    0.7516    1.8599   -0.3307 F   0  0  0  0  0  0  0  0  0  0  0  0
    0.5743    0.6744    1.6142 F   0  0  0  0  0  0  0  0  0  0  0  0
    2.1659   -0.3478   -0.2056 Cl  0  0  0  0  0  0  0  0  0  0  0  0
   -0.4457   -0.2453   -1.7231 F   0  0  0  0  0  0  0  0  0  0  0  0
   -2.0372    0.7769    0.0967 Cl  0  0  0  0  0  0  0  0  0  0  0  0
  1  2  1  0  0  0  0
  2  3  1  0  0  0  0
  3  4  1  0  0  0  0
  3  5  1  0  0  0  0
  3  6  1  0  0  0  0
  2  7  1  0  0  0  0
  2  8  1  0  0  0  0
M  END
$$$$
