C2H3Cl2NO2
APtclcactv12101715333D 0   0.00000     0.00000
 
 10  9  0  0  0  0  0  0  0  0999 V2000
    1.3227   -1.2149    0.1266 Cl  0  0  0  0  0  0  0  0  0  0  0  0
    0.1533    0.0835   -0.3177 C   0  0  0  0  0  0  0  0  0  0  0  0
    0.1875    0.3045   -1.8313 C   0  0  0  0  0  0  0  0  0  0  0  0
   -1.1969   -0.3159    0.0871 N   0  3  0  0  0  0  0  0  0  0  0  0
   -1.3761   -1.3893    0.6341 O   0  0  0  0  0  0  0  0  0  0  0  0
   -2.1401    0.4254   -0.1234 O   0  5  0  0  0  0  0  0  0  0  0  0
    0.6052    1.6129    0.5234 Cl  0  0  0  0  0  0  0  0  0  0  0  0
   -0.0857   -0.6201   -2.3398 H   0  0  0  0  0  0  0  0  0  0  0  0
   -0.5195    1.0895   -2.0999 H   0  0  0  0  0  0  0  0  0  0  0  0
    1.1920    0.6017   -2.1325 H   0  0  0  0  0  0  0  0  0  0  0  0
  1  2  1  0  0  0  0
  2  3  1  0  0  0  0
  2  4  1  0  0  0  0
  4  5  2  0  0  0  0
  4  6  1  0  0  0  0
  2  7  1  0  0  0  0
  3  8  1  0  0  0  0
  3  9  1  0  0  0  0
  3 10  1  0  0  0  0
M  CHG  2   4   1   6  -1
M  END
$$$$
