C12H8N2
APtclcactv12111704553D 0   0.00000     0.00000
 
 22 24  0  0  0  0  0  0  0  0999 V2000
   -1.4241   -1.5112    0.0006 N   0  0  0  0  0  0  0  0  0  0  0  0
   -2.7380   -1.5133   -0.0002 C   0  0  0  0  0  0  0  0  0  0  0  0
   -3.4665   -0.3295   -0.0007 C   0  0  0  0  0  0  0  0  0  0  0  0
   -2.8133    0.8728   -0.0005 C   0  0  0  0  0  0  0  0  0  0  0  0
   -1.4083    0.8662    0.0003 C   0  0  0  0  0  0  0  0  0  0  0  0
   -0.6746    2.0736    0.0001 C   0  0  0  0  0  0  0  0  0  0  0  0
    0.6746    2.0736    0.0003 C   0  0  0  0  0  0  0  0  0  0  0  0
    1.4083    0.8662    0.0004 C   0  0  0  0  0  0  0  0  0  0  0  0
    2.8133    0.8728   -0.0003 C   0  0  0  0  0  0  0  0  0  0  0  0
    3.4665   -0.3295   -0.0007 C   0  0  0  0  0  0  0  0  0  0  0  0
    2.7380   -1.5134   -0.0004 C   0  0  0  0  0  0  0  0  0  0  0  0
    1.4241   -1.5113    0.0002 N   0  0  0  0  0  0  0  0  0  0  0  0
    0.7338   -0.3748    0.0006 C   0  0  0  0  0  0  0  0  0  0  0  0
   -0.7339   -0.3748    0.0008 C   0  0  0  0  0  0  0  0  0  0  0  0
   -3.2640   -2.4565   -0.0007 H   0  0  0  0  0  0  0  0  0  0  0  0
   -4.5461   -0.3587   -0.0017 H   0  0  0  0  0  0  0  0  0  0  0  0
   -3.3631    1.8024   -0.0013 H   0  0  0  0  0  0  0  0  0  0  0  0
   -1.2041    3.0149   -0.0007 H   0  0  0  0  0  0  0  0  0  0  0  0
    1.2041    3.0149    0.0002 H   0  0  0  0  0  0  0  0  0  0  0  0
    3.3631    1.8024   -0.0008 H   0  0  0  0  0  0  0  0  0  0  0  0
    4.5461   -0.3586   -0.0015 H   0  0  0  0  0  0  0  0  0  0  0  0
    3.2640   -2.4566   -0.0011 H   0  0  0  0  0  0  0  0  0  0  0  0
  1  2  2  0  0  0  0
  2  3  1  0  0  0  0
  3  4  2  0  0  0  0
  4  5  1  0  0  0  0
  5  6  2  0  0  0  0
  6  7  1  0  0  0  0
  7  8  2  0  0  0  0
  8  9  1  0  0  0  0
  9 10  2  0  0  0  0
 10 11  1  0  0  0  0
 11 12  2  0  0  0  0
 12 13  1  0  0  0  0
  8 13  1  0  0  0  0
 13 14  2  0  0  0  0
  1 14  1  0  0  0  0
  5 14  1  0  0  0  0
  2 15  1  0  0  0  0
  3 16  1  0  0  0  0
  4 17  1  0  0  0  0
  6 18  1  0  0  0  0
  7 19  1  0  0  0  0
  9 20  1  0  0  0  0
 10 21  1  0  0  0  0
 11 22  1  0  0  0  0
M  END
$$$$
