C9H11N
APtclcactv12151716463D 0   0.00000     0.00000
 
 21 22  0  0  0  0  0  0  0  0999 V2000
   -1.1228   -1.3944   -0.0261 N   0  0  0  0  0  0  0  0  0  0  0  0
   -2.3685   -0.6962    0.3193 C   0  0  0  0  0  0  0  0  0  0  0  0
   -2.3662    0.6545   -0.4084 C   0  0  0  0  0  0  0  0  0  0  0  0
   -1.1985    1.4931    0.1110 C   0  0  0  0  0  0  0  0  0  0  0  0
    0.0835    0.7050    0.0521 C   0  0  0  0  0  0  0  0  0  0  0  0
    1.2892    1.3856    0.0609 C   0  0  0  0  0  0  0  0  0  0  0  0
    2.4824    0.6908    0.0111 C   0  0  0  0  0  0  0  0  0  0  0  0
    2.4800   -0.6906   -0.0483 C   0  0  0  0  0  0  0  0  0  0  0  0
    1.2821   -1.3771   -0.0591 C   0  0  0  0  0  0  0  0  0  0  0  0
    0.0802   -0.6801   -0.0094 C   0  0  0  0  0  0  0  0  0  0  0  0
   -1.1336   -2.3363   -0.2579 H   0  0  0  0  0  0  0  0  0  0  0  0
   -3.2251   -1.2880   -0.0036 H   0  0  0  0  0  0  0  0  0  0  0  0
   -2.4151   -0.5352    1.3963 H   0  0  0  0  0  0  0  0  0  0  0  0
   -2.2508    0.4919   -1.4800 H   0  0  0  0  0  0  0  0  0  0  0  0
   -3.3041    1.1752   -0.2150 H   0  0  0  0  0  0  0  0  0  0  0  0
   -1.0987    2.3897   -0.5007 H   0  0  0  0  0  0  0  0  0  0  0  0
   -1.3951    1.7846    1.1428 H   0  0  0  0  0  0  0  0  0  0  0  0
    1.2970    2.4646    0.1066 H   0  0  0  0  0  0  0  0  0  0  0  0
    3.4193    1.2280    0.0183 H   0  0  0  0  0  0  0  0  0  0  0  0
    3.4138   -1.2318   -0.0867 H   0  0  0  0  0  0  0  0  0  0  0  0
    1.2788   -2.4560   -0.1065 H   0  0  0  0  0  0  0  0  0  0  0  0
  1  2  1  0  0  0  0
  2  3  1  0  0  0  0
  3  4  1  0  0  0  0
  4  5  1  0  0  0  0
  5  6  2  0  0  0  0
  6  7  1  0  0  0  0
  7  8  2  0  0  0  0
  8  9  1  0  0  0  0
  9 10  2  0  0  0  0
  1 10  1  0  0  0  0
  5 10  1  0  0  0  0
  1 11  1  0  0  0  0
  2 12  1  0  0  0  0
  2 13  1  0  0  0  0
  3 14  1  0  0  0  0
  3 15  1  0  0  0  0
  4 16  1  0  0  0  0
  4 17  1  0  0  0  0
  6 18  1  0  0  0  0
  7 19  1  0  0  0  0
  8 20  1  0  0  0  0
  9 21  1  0  0  0  0
M  END
$$$$
