C12H3Cl5O2
APtclcactv12111704503D 0   0.00000     0.00000
 
 22 24  0  0  0  0  0  0  0  0999 V2000
    1.8112   -3.0786    0.0013 Cl  0  0  0  0  0  0  0  0  0  0  0  0
    1.6002   -1.3554    0.0005 C   0  0  0  0  0  0  0  0  0  0  0  0
    2.7063   -0.5222   -0.0003 C   0  0  0  0  0  0  0  0  0  0  0  0
    2.5402    0.8519   -0.0004 C   0  0  0  0  0  0  0  0  0  0  0  0
    1.2673    1.3978    0.0003 C   0  0  0  0  0  0  0  0  0  0  0  0
    0.1575    0.5674    0.0006 C   0  0  0  0  0  0  0  0  0  0  0  0
   -1.0939    1.1016    0.0008 O   0  0  0  0  0  0  0  0  0  0  0  0
   -2.1815    0.2848    0.0008 C   0  0  0  0  0  0  0  0  0  0  0  0
   -2.0143   -1.0966    0.0005 C   0  0  0  0  0  0  0  0  0  0  0  0
   -0.7631   -1.6306    0.0003 O   0  0  0  0  0  0  0  0  0  0  0  0
    0.3246   -0.8132   -0.0050 C   0  0  0  0  0  0  0  0  0  0  0  0
   -3.1230   -1.9265    0.0001 C   0  0  0  0  0  0  0  0  0  0  0  0
   -4.3944   -1.3816   -0.0001 C   0  0  0  0  0  0  0  0  0  0  0  0
   -4.5612   -0.0085    0.0001 C   0  0  0  0  0  0  0  0  0  0  0  0
   -3.4564    0.8256    0.0006 C   0  0  0  0  0  0  0  0  0  0  0  0
   -6.1591    0.6701   -0.0008 Cl  0  0  0  0  0  0  0  0  0  0  0  0
    1.0619    3.1216    0.0012 Cl  0  0  0  0  0  0  0  0  0  0  0  0
    3.9295    1.8928   -0.0008 Cl  0  0  0  0  0  0  0  0  0  0  0  0
    4.3037   -1.2020   -0.0006 Cl  0  0  0  0  0  0  0  0  0  0  0  0
   -2.9950   -2.9989   -0.0005 H   0  0  0  0  0  0  0  0  0  0  0  0
   -5.2584   -2.0295   -0.0008 H   0  0  0  0  0  0  0  0  0  0  0  0
   -3.5887    1.8974    0.0011 H   0  0  0  0  0  0  0  0  0  0  0  0
  1  2  1  0  0  0  0
  2  3  2  0  0  0  0
  3  4  1  0  0  0  0
  4  5  2  0  0  0  0
  5  6  1  0  0  0  0
  6  7  1  0  0  0  0
  7  8  1  0  0  0  0
  8  9  2  0  0  0  0
  9 10  1  0  0  0  0
 10 11  1  0  0  0  0
  6 11  2  0  0  0  0
  2 11  1  0  0  0  0
  9 12  1  0  0  0  0
 12 13  2  0  0  0  0
 13 14  1  0  0  0  0
 14 15  2  0  0  0  0
  8 15  1  0  0  0  0
 14 16  1  0  0  0  0
  5 17  1  0  0  0  0
  4 18  1  0  0  0  0
  3 19  1  0  0  0  0
 12 20  1  0  0  0  0
 13 21  1  0  0  0  0
 15 22  1  0  0  0  0
M  END
$$$$
