C6H2F4
APtclcactv12211716473D 0   0.00000     0.00000
 
 12 12  0  0  0  0  0  0  0  0999 V2000
    1.0371   -2.3704    0.0008 F   0  0  0  0  0  0  0  0  0  0  0  0
    0.3622   -1.2000    0.0008 C   0  0  0  0  0  0  0  0  0  0  0  0
    1.0555    0.0000    0.0002 C   0  0  0  0  0  0  0  0  0  0  0  0
    0.3622    1.2000   -0.0002 C   0  0  0  0  0  0  0  0  0  0  0  0
   -1.0220    1.1991   -0.0000 C   0  0  0  0  0  0  0  0  0  0  0  0
   -1.7137   -0.0000    0.0006 C   0  0  0  0  0  0  0  0  0  0  0  0
   -1.0220   -1.1991   -0.0042 C   0  0  0  0  0  0  0  0  0  0  0  0
   -3.0647   -0.0000    0.0013 F   0  0  0  0  0  0  0  0  0  0  0  0
    1.0371    2.3704   -0.0004 F   0  0  0  0  0  0  0  0  0  0  0  0
    2.4065    0.0000    0.0004 F   0  0  0  0  0  0  0  0  0  0  0  0
   -1.5624    2.1341    0.0000 H   0  0  0  0  0  0  0  0  0  0  0  0
   -1.5624   -2.1341   -0.0041 H   0  0  0  0  0  0  0  0  0  0  0  0
  1  2  1  0  0  0  0
  2  3  2  0  0  0  0
  3  4  1  0  0  0  0
  4  5  2  0  0  0  0
  5  6  1  0  0  0  0
  6  7  2  0  0  0  0
  2  7  1  0  0  0  0
  6  8  1  0  0  0  0
  4  9  1  0  0  0  0
  3 10  1  0  0  0  0
  5 11  1  0  0  0  0
  7 12  1  0  0  0  0
M  END
$$$$
