C6H2Cl4
APtclcactv12211716473D 0   0.00000     0.00000
 
 12 12  0  0  0  0  0  0  0  0999 V2000
    1.0584   -2.7025    0.0004 Cl  0  0  0  0  0  0  0  0  0  0  0  0
    0.1908   -1.1988    0.0006 C   0  0  0  0  0  0  0  0  0  0  0  0
    0.8833    0.0000    0.0001 C   0  0  0  0  0  0  0  0  0  0  0  0
    0.1908    1.1988   -0.0002 C   0  0  0  0  0  0  0  0  0  0  0  0
   -1.1924    1.1982    0.0000 C   0  0  0  0  0  0  0  0  0  0  0  0
   -1.8839   -0.0000    0.0005 C   0  0  0  0  0  0  0  0  0  0  0  0
   -1.1924   -1.1982   -0.0045 C   0  0  0  0  0  0  0  0  0  0  0  0
   -3.6199   -0.0000    0.0008 Cl  0  0  0  0  0  0  0  0  0  0  0  0
    1.0584    2.7025   -0.0003 Cl  0  0  0  0  0  0  0  0  0  0  0  0
    2.6193    0.0000    0.0004 Cl  0  0  0  0  0  0  0  0  0  0  0  0
   -1.7327    2.1334    0.0001 H   0  0  0  0  0  0  0  0  0  0  0  0
   -1.7327   -2.1334   -0.0044 H   0  0  0  0  0  0  0  0  0  0  0  0
  1  2  1  0  0  0  0
  2  3  2  0  0  0  0
  3  4  1  0  0  0  0
  4  5  2  0  0  0  0
  5  6  1  0  0  0  0
  6  7  2  0  0  0  0
  2  7  1  0  0  0  0
  6  8  1  0  0  0  0
  4  9  1  0  0  0  0
  3 10  1  0  0  0  0
  5 11  1  0  0  0  0
  7 12  1  0  0  0  0
M  END
$$$$
