C6H3Cl3
APtclcactv12211716483D 0   0.00000     0.00000
 
 12 12  0  0  0  0  0  0  0  0999 V2000
   -2.6548   -1.0861   -0.0011 Cl  0  0  0  0  0  0  0  0  0  0  0  0
   -0.9560   -0.7285   -0.0007 C   0  0  0  0  0  0  0  0  0  0  0  0
   -0.5255    0.5873    0.0002 C   0  0  0  0  0  0  0  0  0  0  0  0
    0.8283    0.8715    0.0004 C   0  0  0  0  0  0  0  0  0  0  0  0
    1.7510   -0.1589   -0.0002 C   0  0  0  0  0  0  0  0  0  0  0  0
    1.3201   -1.4739   -0.0011 C   0  0  0  0  0  0  0  0  0  0  0  0
   -0.0323   -1.7584    0.0044 C   0  0  0  0  0  0  0  0  0  0  0  0
    3.4500    0.1975   -0.0005 Cl  0  0  0  0  0  0  0  0  0  0  0  0
   -1.6841    1.8801    0.0004 Cl  0  0  0  0  0  0  0  0  0  0  0  0
    1.1648    1.8978    0.0008 H   0  0  0  0  0  0  0  0  0  0  0  0
    2.0408   -2.2782   -0.0016 H   0  0  0  0  0  0  0  0  0  0  0  0
   -0.3680   -2.7848    0.0041 H   0  0  0  0  0  0  0  0  0  0  0  0
  1  2  1  0  0  0  0
  2  3  2  0  0  0  0
  3  4  1  0  0  0  0
  4  5  2  0  0  0  0
  5  6  1  0  0  0  0
  6  7  2  0  0  0  0
  2  7  1  0  0  0  0
  5  8  1  0  0  0  0
  3  9  1  0  0  0  0
  4 10  1  0  0  0  0
  6 11  1  0  0  0  0
  7 12  1  0  0  0  0
M  END
$$$$
