C12HCl7O2
APtclcactv12111704493D 0   0.00000     0.00000
 
 22 24  0  0  0  0  0  0  0  0999 V2000
    2.4373   -3.2016    0.0008 Cl  0  0  0  0  0  0  0  0  0  0  0  0
    2.3039   -1.4707    0.0002 C   0  0  0  0  0  0  0  0  0  0  0  0
    3.4463   -0.6879   -0.0001 C   0  0  0  0  0  0  0  0  0  0  0  0
    3.3419    0.6923   -0.0005 C   0  0  0  0  0  0  0  0  0  0  0  0
    2.0949    1.2947   -0.0002 C   0  0  0  0  0  0  0  0  0  0  0  0
    0.9489    0.5149    0.0001 C   0  0  0  0  0  0  0  0  0  0  0  0
   -0.2773    1.1046    0.0003 O   0  0  0  0  0  0  0  0  0  0  0  0
   -1.4007    0.3369    0.0006 C   0  0  0  0  0  0  0  0  0  0  0  0
   -1.2955   -1.0501    0.0006 C   0  0  0  0  0  0  0  0  0  0  0  0
   -0.0695   -1.6395    0.0003 O   0  0  0  0  0  0  0  0  0  0  0  0
    1.0539   -0.8718   -0.0057 C   0  0  0  0  0  0  0  0  0  0  0  0
   -2.4402   -1.8301    0.0005 C   0  0  0  0  0  0  0  0  0  0  0  0
   -3.6870   -1.2292    0.0003 C   0  0  0  0  0  0  0  0  0  0  0  0
   -3.7926    0.1509    0.0003 C   0  0  0  0  0  0  0  0  0  0  0  0
   -2.6509    0.9349    0.0004 C   0  0  0  0  0  0  0  0  0  0  0  0
   -2.7857    2.6657    0.0009 Cl  0  0  0  0  0  0  0  0  0  0  0  0
   -5.3586    0.9003   -0.0006 Cl  0  0  0  0  0  0  0  0  0  0  0  0
   -5.1208   -2.2080   -0.0004 Cl  0  0  0  0  0  0  0  0  0  0  0  0
    1.9670    3.0260    0.0004 Cl  0  0  0  0  0  0  0  0  0  0  0  0
    4.7766    1.6698   -0.0008 Cl  0  0  0  0  0  0  0  0  0  0  0  0
    5.0115   -1.4388    0.0007 Cl  0  0  0  0  0  0  0  0  0  0  0  0
   -2.3598   -2.9071    0.0002 H   0  0  0  0  0  0  0  0  0  0  0  0
  1  2  1  0  0  0  0
  2  3  2  0  0  0  0
  3  4  1  0  0  0  0
  4  5  2  0  0  0  0
  5  6  1  0  0  0  0
  6  7  1  0  0  0  0
  7  8  1  0  0  0  0
  8  9  2  0  0  0  0
  9 10  1  0  0  0  0
 10 11  1  0  0  0  0
  6 11  2  0  0  0  0
  2 11  1  0  0  0  0
  9 12  1  0  0  0  0
 12 13  2  0  0  0  0
 13 14  1  0  0  0  0
 14 15  2  0  0  0  0
  8 15  1  0  0  0  0
 15 16  1  0  0  0  0
 14 17  1  0  0  0  0
 13 18  1  0  0  0  0
  5 19  1  0  0  0  0
  4 20  1  0  0  0  0
  3 21  1  0  0  0  0
 12 22  1  0  0  0  0
M  END
$$$$
