C12H4Cl4O2
APtclcactv12111704513D 0   0.00000     0.00000
 
 22 24  0  0  0  0  0  0  0  0999 V2000
    2.0365   -2.6611    0.0000 Cl  0  0  0  0  0  0  0  0  0  0  0  0
    1.7542   -0.9482    0.0004 C   0  0  0  0  0  0  0  0  0  0  0  0
    2.8247   -0.0695    0.0001 C   0  0  0  0  0  0  0  0  0  0  0  0
    2.6012    1.2964   -0.0001 C   0  0  0  0  0  0  0  0  0  0  0  0
    1.3075    1.7886    0.0005 C   0  0  0  0  0  0  0  0  0  0  0  0
    0.2336    0.9136    0.0008 C   0  0  0  0  0  0  0  0  0  0  0  0
   -1.0386    1.3956    0.0009 O   0  0  0  0  0  0  0  0  0  0  0  0
   -2.0915    0.5346    0.0009 C   0  0  0  0  0  0  0  0  0  0  0  0
   -1.8677   -0.8387    0.0006 C   0  0  0  0  0  0  0  0  0  0  0  0
   -0.5956   -1.3208    0.0005 O   0  0  0  0  0  0  0  0  0  0  0  0
    0.4575   -0.4592   -0.0048 C   0  0  0  0  0  0  0  0  0  0  0  0
   -2.9412   -1.7136    0.0002 C   0  0  0  0  0  0  0  0  0  0  0  0
   -4.2340   -1.2215   -0.0001 C   0  0  0  0  0  0  0  0  0  0  0  0
   -4.4572    0.1435    0.0001 C   0  0  0  0  0  0  0  0  0  0  0  0
   -3.3877    1.0224    0.0006 C   0  0  0  0  0  0  0  0  0  0  0  0
   -6.0816    0.7557   -0.0003 Cl  0  0  0  0  0  0  0  0  0  0  0  0
    3.9458    2.3944   -0.0005 Cl  0  0  0  0  0  0  0  0  0  0  0  0
    4.4491   -0.6821    0.0005 Cl  0  0  0  0  0  0  0  0  0  0  0  0
    1.1354    2.8548    0.0011 H   0  0  0  0  0  0  0  0  0  0  0  0
   -2.7691   -2.7798   -0.0004 H   0  0  0  0  0  0  0  0  0  0  0  0
   -5.0706   -1.9044   -0.0009 H   0  0  0  0  0  0  0  0  0  0  0  0
   -3.5640    2.0879    0.0004 H   0  0  0  0  0  0  0  0  0  0  0  0
  1  2  1  0  0  0  0
  2  3  2  0  0  0  0
  3  4  1  0  0  0  0
  4  5  2  0  0  0  0
  5  6  1  0  0  0  0
  6  7  1  0  0  0  0
  7  8  1  0  0  0  0
  8  9  2  0  0  0  0
  9 10  1  0  0  0  0
 10 11  1  0  0  0  0
  6 11  2  0  0  0  0
  2 11  1  0  0  0  0
  9 12  1  0  0  0  0
 12 13  2  0  0  0  0
 13 14  1  0  0  0  0
 14 15  2  0  0  0  0
  8 15  1  0  0  0  0
 14 16  1  0  0  0  0
  4 17  1  0  0  0  0
  3 18  1  0  0  0  0
  5 19  1  0  0  0  0
 12 20  1  0  0  0  0
 13 21  1  0  0  0  0
 15 22  1  0  0  0  0
M  END
$$$$
