C3H5Cl3
APtclcactv12101715363D 0   0.00000     0.00000
 
 11 10  0  0  0  0  0  0  0  0999 V2000
   -2.7214   -0.2338    0.2580 Cl  0  0  0  0  0  0  0  0  0  0  0  0
   -1.2492   -0.9796   -0.4682 C   0  0  0  0  0  0  0  0  0  0  0  0
    0.0000   -0.3467    0.1480 C   0  0  0  0  0  0  0  0  0  0  0  0
    1.2492   -0.9796   -0.4682 C   0  0  0  0  0  0  0  0  0  0  0  0
    2.7214   -0.2338    0.2580 Cl  0  0  0  0  0  0  0  0  0  0  0  0
   -0.0000    1.4261   -0.1805 Cl  0  0  0  0  0  0  0  0  0  0  0  0
   -1.2492   -2.0513   -0.2697 H   0  0  0  0  0  0  0  0  0  0  0  0
   -1.2492   -0.8095   -1.5449 H   0  0  0  0  0  0  0  0  0  0  0  0
    0.0000   -0.5167    1.2247 H   0  0  0  0  0  0  0  0  0  0  0  0
    1.2492   -2.0513   -0.2697 H   0  0  0  0  0  0  0  0  0  0  0  0
    1.2492   -0.8095   -1.5449 H   0  0  0  0  0  0  0  0  0  0  0  0
  1  2  1  0  0  0  0
  2  3  1  0  0  0  0
  3  4  1  0  0  0  0
  4  5  1  0  0  0  0
  3  6  1  0  0  0  0
  2  7  1  0  0  0  0
  2  8  1  0  0  0  0
  3  9  1  0  0  0  0
  4 10  1  0  0  0  0
  4 11  1  0  0  0  0
M  END
$$$$
