C16H16
APtclcactv12211717113D 0   0.00000     0.00000
 
 32 35  0  0  0  0  0  0  0  0999 V2000
   -2.9033    1.2489   -0.0946 C   0  0  0  0  0  0  0  0  0  0  0  0
   -3.4303   -0.0003    0.6160 C   0  0  0  0  0  0  0  0  0  0  0  0
   -2.9038   -1.2477   -0.0983 C   0  0  0  0  0  0  0  0  0  0  0  0
   -1.3970   -1.2250   -0.0969 C   0  0  0  0  0  0  0  0  0  0  0  0
   -0.6974   -2.3921   -0.0957 C   0  0  0  0  0  0  0  0  0  0  0  0
    0.6966   -2.3923   -0.0943 C   0  0  0  0  0  0  0  0  0  0  0  0
    1.3966   -1.2255   -0.0949 C   0  0  0  0  0  0  0  0  0  0  0  0
    2.9034   -1.2489   -0.0943 C   0  0  0  0  0  0  0  0  0  0  0  0
    3.4303    0.0006    0.6159 C   0  0  0  0  0  0  0  0  0  0  0  0
    2.9037    1.2478   -0.0987 C   0  0  0  0  0  0  0  0  0  0  0  0
    1.3969    1.2249   -0.0969 C   0  0  0  0  0  0  0  0  0  0  0  0
    0.6974    2.3920   -0.0954 C   0  0  0  0  0  0  0  0  0  0  0  0
   -0.6966    2.3922   -0.0943 C   0  0  0  0  0  0  0  0  0  0  0  0
   -1.3965    1.2254   -0.0950 C   0  0  0  0  0  0  0  0  0  0  0  0
   -0.7088    0.0001   -0.0963 C   0  0  0  0  0  0  0  0  0  0  0  0
    0.7088   -0.0002   -0.0964 C   0  0  0  0  0  0  0  0  0  0  0  0
   -3.2670    1.2634   -1.1221 H   0  0  0  0  0  0  0  0  0  0  0  0
   -3.2530    2.1393    0.4279 H   0  0  0  0  0  0  0  0  0  0  0  0
   -3.0881   -0.0019    1.6509 H   0  0  0  0  0  0  0  0  0  0  0  0
   -4.5200   -0.0000    0.5924 H   0  0  0  0  0  0  0  0  0  0  0  0
   -3.2547   -2.1395    0.4209 H   0  0  0  0  0  0  0  0  0  0  0  0
   -3.2664   -1.2585   -1.1262 H   0  0  0  0  0  0  0  0  0  0  0  0
   -1.2298   -3.3317   -0.0956 H   0  0  0  0  0  0  0  0  0  0  0  0
    1.2286   -3.3322   -0.0923 H   0  0  0  0  0  0  0  0  0  0  0  0
    3.2531   -2.1390    0.4286 H   0  0  0  0  0  0  0  0  0  0  0  0
    3.2672   -1.2638   -1.1217 H   0  0  0  0  0  0  0  0  0  0  0  0
    3.0883    0.0024    1.6508 H   0  0  0  0  0  0  0  0  0  0  0  0
    4.5201    0.0004    0.5921 H   0  0  0  0  0  0  0  0  0  0  0  0
    3.2546    2.1397    0.4203 H   0  0  0  0  0  0  0  0  0  0  0  0
    3.2661    1.2583   -1.1266 H   0  0  0  0  0  0  0  0  0  0  0  0
    1.2298    3.3316   -0.0947 H   0  0  0  0  0  0  0  0  0  0  0  0
   -1.2287    3.3321   -0.0926 H   0  0  0  0  0  0  0  0  0  0  0  0
  1  2  1  0  0  0  0
  2  3  1  0  0  0  0
  3  4  1  0  0  0  0
  4  5  2  0  0  0  0
  5  6  1  0  0  0  0
  6  7  2  0  0  0  0
  7  8  1  0  0  0  0
  8  9  1  0  0  0  0
  9 10  1  0  0  0  0
 10 11  1  0  0  0  0
 11 12  2  0  0  0  0
 12 13  1  0  0  0  0
 13 14  2  0  0  0  0
  1 14  1  0  0  0  0
 14 15  1  0  0  0  0
  4 15  1  0  0  0  0
 15 16  2  0  0  0  0
  7 16  1  0  0  0  0
 11 16  1  0  0  0  0
  1 17  1  0  0  0  0
  1 18  1  0  0  0  0
  2 19  1  0  0  0  0
  2 20  1  0  0  0  0
  3 21  1  0  0  0  0
  3 22  1  0  0  0  0
  5 23  1  0  0  0  0
  6 24  1  0  0  0  0
  8 25  1  0  0  0  0
  8 26  1  0  0  0  0
  9 27  1  0  0  0  0
  9 28  1  0  0  0  0
 10 29  1  0  0  0  0
 10 30  1  0  0  0  0
 12 31  1  0  0  0  0
 13 32  1  0  0  0  0
M  END
$$$$
