C12HCl7O
APtclcactv12111704493D 0   0.00000     0.00000
 
 21 23  0  0  0  0  0  0  0  0999 V2000
    1.2581   -3.0221    0.0006 Cl  0  0  0  0  0  0  0  0  0  0  0  0
    1.6605   -1.3333    0.0004 C   0  0  0  0  0  0  0  0  0  0  0  0
    2.9830   -0.9359   -0.0000 C   0  0  0  0  0  0  0  0  0  0  0  0
    3.3039    0.4142   -0.0002 C   0  0  0  0  0  0  0  0  0  0  0  0
    2.3093    1.3721    0.0000 C   0  0  0  0  0  0  0  0  0  0  0  0
    0.9723    0.9894    0.0004 C   0  0  0  0  0  0  0  0  0  0  0  0
   -0.1768    1.7012    0.0004 O   0  0  0  0  0  0  0  0  0  0  0  0
   -1.2604    0.8933    0.0001 C   0  0  0  0  0  0  0  0  0  0  0  0
   -0.8230   -0.4380   -0.0001 C   0  0  0  0  0  0  0  0  0  0  0  0
    0.6511   -0.3744   -0.0052 C   0  0  0  0  0  0  0  0  0  0  0  0
   -1.7454   -1.4796   -0.0000 C   0  0  0  0  0  0  0  0  0  0  0  0
   -3.0962   -1.1985    0.0002 C   0  0  0  0  0  0  0  0  0  0  0  0
   -3.5332    0.1189   -0.0001 C   0  0  0  0  0  0  0  0  0  0  0  0
   -2.6254    1.1593    0.0006 C   0  0  0  0  0  0  0  0  0  0  0  0
   -3.1886    2.8014    0.0004 Cl  0  0  0  0  0  0  0  0  0  0  0  0
   -5.2351    0.4613   -0.0004 Cl  0  0  0  0  0  0  0  0  0  0  0  0
   -4.2512   -2.4945    0.0003 Cl  0  0  0  0  0  0  0  0  0  0  0  0
    2.7286    3.0567    0.0003 Cl  0  0  0  0  0  0  0  0  0  0  0  0
    4.9697    0.9029   -0.0002 Cl  0  0  0  0  0  0  0  0  0  0  0  0
    4.2459   -2.1270    0.0002 Cl  0  0  0  0  0  0  0  0  0  0  0  0
   -1.4052   -2.5047   -0.0005 H   0  0  0  0  0  0  0  0  0  0  0  0
  1  2  1  0  0  0  0
  2  3  2  0  0  0  0
  3  4  1  0  0  0  0
  4  5  2  0  0  0  0
  5  6  1  0  0  0  0
  6  7  1  0  0  0  0
  7  8  1  0  0  0  0
  8  9  2  0  0  0  0
  9 10  1  0  0  0  0
  6 10  2  0  0  0  0
  2 10  1  0  0  0  0
  9 11  1  0  0  0  0
 11 12  2  0  0  0  0
 12 13  1  0  0  0  0
 13 14  2  0  0  0  0
  8 14  1  0  0  0  0
 14 15  1  0  0  0  0
 13 16  1  0  0  0  0
 12 17  1  0  0  0  0
  5 18  1  0  0  0  0
  4 19  1  0  0  0  0
  3 20  1  0  0  0  0
 11 21  1  0  0  0  0
M  END
$$$$
