C12H2Cl6O2
APtclcactv12111704503D 0   0.00000     0.00000
 
 22 24  0  0  0  0  0  0  0  0999 V2000
    1.9611   -3.1226    0.0004 Cl  0  0  0  0  0  0  0  0  0  0  0  0
    1.9588   -1.3866    0.0000 C   0  0  0  0  0  0  0  0  0  0  0  0
    3.1571   -0.6923   -0.0001 C   0  0  0  0  0  0  0  0  0  0  0  0
    3.1573    0.6918   -0.0004 C   0  0  0  0  0  0  0  0  0  0  0  0
    1.9594    1.3867   -0.0000 C   0  0  0  0  0  0  0  0  0  0  0  0
    0.7578    0.6957    0.0002 C   0  0  0  0  0  0  0  0  0  0  0  0
   -0.4203    1.3765    0.0005 O   0  0  0  0  0  0  0  0  0  0  0  0
   -1.5984    0.6962    0.0008 C   0  0  0  0  0  0  0  0  0  0  0  0
   -1.5984   -0.6952    0.0006 C   0  0  0  0  0  0  0  0  0  0  0  0
   -0.4204   -1.3756    0.0002 O   0  0  0  0  0  0  0  0  0  0  0  0
    0.7577   -0.6949   -0.0058 C   0  0  0  0  0  0  0  0  0  0  0  0
   -2.7986   -1.3861    0.0004 C   0  0  0  0  0  0  0  0  0  0  0  0
   -3.9962   -0.6920    0.0004 C   0  0  0  0  0  0  0  0  0  0  0  0
   -3.9962    0.6921    0.0001 C   0  0  0  0  0  0  0  0  0  0  0  0
   -2.7989    1.3867    0.0007 C   0  0  0  0  0  0  0  0  0  0  0  0
   -5.5006    1.5586   -0.0006 Cl  0  0  0  0  0  0  0  0  0  0  0  0
   -5.5003   -1.5588    0.0002 Cl  0  0  0  0  0  0  0  0  0  0  0  0
    1.9627    3.1227    0.0008 Cl  0  0  0  0  0  0  0  0  0  0  0  0
    4.6617    1.5581   -0.0006 Cl  0  0  0  0  0  0  0  0  0  0  0  0
    4.6611   -1.5593    0.0005 Cl  0  0  0  0  0  0  0  0  0  0  0  0
   -2.8003   -2.4661   -0.0000 H   0  0  0  0  0  0  0  0  0  0  0  0
   -2.8010    2.4667    0.0012 H   0  0  0  0  0  0  0  0  0  0  0  0
  1  2  1  0  0  0  0
  2  3  2  0  0  0  0
  3  4  1  0  0  0  0
  4  5  2  0  0  0  0
  5  6  1  0  0  0  0
  6  7  1  0  0  0  0
  7  8  1  0  0  0  0
  8  9  2  0  0  0  0
  9 10  1  0  0  0  0
 10 11  1  0  0  0  0
  6 11  2  0  0  0  0
  2 11  1  0  0  0  0
  9 12  1  0  0  0  0
 12 13  2  0  0  0  0
 13 14  1  0  0  0  0
 14 15  2  0  0  0  0
  8 15  1  0  0  0  0
 14 16  1  0  0  0  0
 13 17  1  0  0  0  0
  5 18  1  0  0  0  0
  4 19  1  0  0  0  0
  3 20  1  0  0  0  0
 12 21  1  0  0  0  0
 15 22  1  0  0  0  0
M  END
$$$$
