C6H2Br4
APtclcactv12211716473D 0   0.00000     0.00000
 
 12 12  0  0  0  0  0  0  0  0999 V2000
   -2.8353   -1.6376   -0.0008 Br  0  0  0  0  0  0  0  0  0  0  0  0
   -1.1977   -0.6921   -0.0004 C   0  0  0  0  0  0  0  0  0  0  0  0
   -1.1977    0.6921    0.0003 C   0  0  0  0  0  0  0  0  0  0  0  0
    0.0000    1.3836    0.0005 C   0  0  0  0  0  0  0  0  0  0  0  0
    1.1977    0.6921    0.0005 C   0  0  0  0  0  0  0  0  0  0  0  0
    1.1977   -0.6921    0.0007 C   0  0  0  0  0  0  0  0  0  0  0  0
   -0.0000   -1.3836    0.0049 C   0  0  0  0  0  0  0  0  0  0  0  0
    2.8353   -1.6376   -0.0000 Br  0  0  0  0  0  0  0  0  0  0  0  0
    2.8353    1.6376   -0.0005 Br  0  0  0  0  0  0  0  0  0  0  0  0
   -2.8353    1.6376    0.0003 Br  0  0  0  0  0  0  0  0  0  0  0  0
    0.0000    2.4636    0.0003 H   0  0  0  0  0  0  0  0  0  0  0  0
   -0.0000   -2.4636    0.0051 H   0  0  0  0  0  0  0  0  0  0  0  0
  1  2  1  0  0  0  0
  2  3  2  0  0  0  0
  3  4  1  0  0  0  0
  4  5  2  0  0  0  0
  5  6  1  0  0  0  0
  6  7  2  0  0  0  0
  2  7  1  0  0  0  0
  6  8  1  0  0  0  0
  5  9  1  0  0  0  0
  3 10  1  0  0  0  0
  4 11  1  0  0  0  0
  7 12  1  0  0  0  0
M  END
$$$$
