C8H16O3S
APtclcactv12151716373D 0   0.00000     0.00000
 
 28 28  0  0  0  0  0  0  0  0999 V2000
   -1.0246    1.0864    0.1678 C   0  0  0  0  0  0  0  0  0  0  0  0
   -2.0015    0.0077   -0.3046 C   0  0  0  0  0  0  0  0  0  0  0  0
   -3.4073    0.3353    0.2028 C   0  0  0  0  0  0  0  0  0  0  0  0
   -4.3842   -0.7433   -0.2695 C   0  0  0  0  0  0  0  0  0  0  0  0
   -5.7899   -0.4158    0.2379 C   0  0  0  0  0  0  0  0  0  0  0  0
    0.3811    0.7588   -0.3396 C   0  0  0  0  0  0  0  0  0  0  0  0
    1.3485    1.9062    0.0259 C   0  0  0  0  0  0  0  0  0  0  0  0
    2.7516    1.2642   -0.1496 C   0  0  0  0  0  0  0  0  0  0  0  0
    2.3709   -0.5177    0.0317 S   0  0  0  0  0  0  0  0  0  0  0  0
    0.8572   -0.4443    0.2899 O   0  0  0  0  0  0  0  0  0  0  0  0
    2.5003   -1.1986   -1.2089 O   0  0  0  0  0  0  0  0  0  0  0  0
    2.9241   -1.0408    1.2315 O   0  0  0  0  0  0  0  0  0  0  0  0
   -1.3357    2.0549   -0.2237 H   0  0  0  0  0  0  0  0  0  0  0  0
   -1.0191    1.1196    1.2572 H   0  0  0  0  0  0  0  0  0  0  0  0
   -2.0071   -0.0255   -1.3941 H   0  0  0  0  0  0  0  0  0  0  0  0
   -1.6905   -0.9608    0.0869 H   0  0  0  0  0  0  0  0  0  0  0  0
   -3.4017    0.3685    1.2923 H   0  0  0  0  0  0  0  0  0  0  0  0
   -3.7183    1.3038   -0.1886 H   0  0  0  0  0  0  0  0  0  0  0  0
   -4.3897   -0.7766   -1.3590 H   0  0  0  0  0  0  0  0  0  0  0  0
   -4.0731   -1.7119    0.1220 H   0  0  0  0  0  0  0  0  0  0  0  0
   -5.7844   -0.3825    1.3274 H   0  0  0  0  0  0  0  0  0  0  0  0
   -6.1010    0.5528   -0.1536 H   0  0  0  0  0  0  0  0  0  0  0  0
   -6.4859   -1.1842   -0.0986 H   0  0  0  0  0  0  0  0  0  0  0  0
    0.3603    0.6250   -1.4212 H   0  0  0  0  0  0  0  0  0  0  0  0
    1.2227    2.7468   -0.6566 H   0  0  0  0  0  0  0  0  0  0  0  0
    1.1971    2.2221    1.0580 H   0  0  0  0  0  0  0  0  0  0  0  0
    3.1576    1.4779   -1.1383 H   0  0  0  0  0  0  0  0  0  0  0  0
    3.4342    1.5988    0.6315 H   0  0  0  0  0  0  0  0  0  0  0  0
  1  2  1  0  0  0  0
  2  3  1  0  0  0  0
  3  4  1  0  0  0  0
  4  5  1  0  0  0  0
  1  6  1  0  0  0  0
  6  7  1  0  0  0  0
  7  8  1  0  0  0  0
  8  9  1  0  0  0  0
  9 10  1  0  0  0  0
  6 10  1  0  0  0  0
  9 11  2  0  0  0  0
  9 12  2  0  0  0  0
  1 13  1  0  0  0  0
  1 14  1  0  0  0  0
  2 15  1  0  0  0  0
  2 16  1  0  0  0  0
  3 17  1  0  0  0  0
  3 18  1  0  0  0  0
  4 19  1  0  0  0  0
  4 20  1  0  0  0  0
  5 21  1  0  0  0  0
  5 22  1  0  0  0  0
  5 23  1  0  0  0  0
  6 24  1  0  0  0  0
  7 25  1  0  0  0  0
  7 26  1  0  0  0  0
  8 27  1  0  0  0  0
  8 28  1  0  0  0  0
M  END
$$$$
