C10H14
APtclcactv12211717263D 0   0.00000     0.00000
 
 24 24  0  0  0  0  0  0  0  0999 V2000
   -1.3238    1.3522   -0.5073 C   0  0  0  0  0  0  0  0  0  0  0  0
   -1.8292    1.9934    0.7867 C   0  0  0  0  0  0  0  0  0  0  0  0
   -0.0185    0.6473   -0.2421 C   0  0  0  0  0  0  0  0  0  0  0  0
   -0.0182   -0.6469    0.2432 C   0  0  0  0  0  0  0  0  0  0  0  0
    1.1793   -1.2936    0.4865 C   0  0  0  0  0  0  0  0  0  0  0  0
    2.3761   -0.6462    0.2440 C   0  0  0  0  0  0  0  0  0  0  0  0
    2.3758    0.6480   -0.2422 C   0  0  0  0  0  0  0  0  0  0  0  0
    1.1787    1.2930   -0.4896 C   0  0  0  0  0  0  0  0  0  0  0  0
   -1.3231   -1.3528    0.5076 C   0  0  0  0  0  0  0  0  0  0  0  0
   -1.8273   -1.9943   -0.7867 C   0  0  0  0  0  0  0  0  0  0  0  0
   -2.0589    0.6324   -0.8674 H   0  0  0  0  0  0  0  0  0  0  0  0
   -1.1727    2.1251   -1.2609 H   0  0  0  0  0  0  0  0  0  0  0  0
   -1.9803    1.2205    1.5403 H   0  0  0  0  0  0  0  0  0  0  0  0
   -1.0941    2.7132    1.1468 H   0  0  0  0  0  0  0  0  0  0  0  0
   -2.7733    2.5033    0.5949 H   0  0  0  0  0  0  0  0  0  0  0  0
    1.1796   -2.3046    0.8664 H   0  0  0  0  0  0  0  0  0  0  0  0
    3.3115   -1.1511    0.4348 H   0  0  0  0  0  0  0  0  0  0  0  0
    3.3110    1.1541   -0.4314 H   0  0  0  0  0  0  0  0  0  0  0  0
    1.1784    2.3040   -0.8695 H   0  0  0  0  0  0  0  0  0  0  0  0
   -1.1720   -2.1256    1.2612 H   0  0  0  0  0  0  0  0  0  0  0  0
   -2.0590   -0.6335    0.8672 H   0  0  0  0  0  0  0  0  0  0  0  0
   -1.9784   -1.2215   -1.5404 H   0  0  0  0  0  0  0  0  0  0  0  0
   -1.0914   -2.7136   -1.1463 H   0  0  0  0  0  0  0  0  0  0  0  0
   -2.7711   -2.5049   -0.5955 H   0  0  0  0  0  0  0  0  0  0  0  0
  1  2  1  0  0  0  0
  1  3  1  0  0  0  0
  3  4  2  0  0  0  0
  4  5  1  0  0  0  0
  5  6  2  0  0  0  0
  6  7  1  0  0  0  0
  7  8  2  0  0  0  0
  3  8  1  0  0  0  0
  4  9  1  0  0  0  0
  9 10  1  0  0  0  0
  1 11  1  0  0  0  0
  1 12  1  0  0  0  0
  2 13  1  0  0  0  0
  2 14  1  0  0  0  0
  2 15  1  0  0  0  0
  5 16  1  0  0  0  0
  6 17  1  0  0  0  0
  7 18  1  0  0  0  0
  8 19  1  0  0  0  0
  9 20  1  0  0  0  0
  9 21  1  0  0  0  0
 10 22  1  0  0  0  0
 10 23  1  0  0  0  0
 10 24  1  0  0  0  0
M  END
$$$$
