C3H4Cl2
APtclcactv12101715353D 0   0.00000     0.00000
 
  9  8  0  0  0  0  0  0  0  0999 V2000
   -1.8615   -0.0114   -0.0001 Cl  0  0  0  0  0  0  0  0  0  0  0  0
   -0.4631   -1.0400   -0.0001 C   0  0  0  0  0  0  0  0  0  0  0  0
    0.7395   -0.5131   -0.0001 C   0  0  0  0  0  0  0  0  0  0  0  0
    1.9534   -1.4060   -0.0001 C   0  0  0  0  0  0  0  0  0  0  0  0
    0.9310    1.2123    0.0001 Cl  0  0  0  0  0  0  0  0  0  0  0  0
   -0.5823   -2.1134    0.0043 H   0  0  0  0  0  0  0  0  0  0  0  0
    2.2461   -1.6212   -1.0278 H   0  0  0  0  0  0  0  0  0  0  0  0
    2.7734   -0.9044    0.5137 H   0  0  0  0  0  0  0  0  0  0  0  0
    1.7188   -2.3383    0.5136 H   0  0  0  0  0  0  0  0  0  0  0  0
  1  2  1  0  0  0  0
  2  3  2  0  0  0  0
  3  4  1  0  0  0  0
  3  5  1  0  0  0  0
  2  6  1  0  0  0  0
  4  7  1  0  0  0  0
  4  8  1  0  0  0  0
  4  9  1  0  0  0  0
M  END
$$$$
