C12H4Cl4O2
APtclcactv12111704513D 0   0.00000     0.00000
 
 22 24  0  0  0  0  0  0  0  0999 V2000
    2.3321   -3.1598    0.0010 Cl  0  0  0  0  0  0  0  0  0  0  0  0
    2.3568   -1.4240    0.0005 C   0  0  0  0  0  0  0  0  0  0  0  0
    3.5649   -0.7486   -0.0005 C   0  0  0  0  0  0  0  0  0  0  0  0
    3.5868    0.6344   -0.0004 C   0  0  0  0  0  0  0  0  0  0  0  0
    2.4009    1.3481    0.0002 C   0  0  0  0  0  0  0  0  0  0  0  0
    1.1891    0.6771    0.0007 C   0  0  0  0  0  0  0  0  0  0  0  0
    0.0223    1.3763    0.0007 O   0  0  0  0  0  0  0  0  0  0  0  0
   -1.1666    0.7145    0.0008 C   0  0  0  0  0  0  0  0  0  0  0  0
   -1.1888   -0.6763    0.0007 C   0  0  0  0  0  0  0  0  0  0  0  0
   -0.0221   -1.3755    0.0006 O   0  0  0  0  0  0  0  0  0  0  0  0
    1.1667   -0.7137   -0.0048 C   0  0  0  0  0  0  0  0  0  0  0  0
   -2.4003   -1.3480    0.0003 C   0  0  0  0  0  0  0  0  0  0  0  0
   -3.5865   -0.6347   -0.0001 C   0  0  0  0  0  0  0  0  0  0  0  0
   -3.5649    0.7483   -0.0005 C   0  0  0  0  0  0  0  0  0  0  0  0
   -2.3570    1.4242    0.0004 C   0  0  0  0  0  0  0  0  0  0  0  0
   -2.3332    3.1600    0.0004 Cl  0  0  0  0  0  0  0  0  0  0  0  0
   -5.1042   -1.4775   -0.0006 Cl  0  0  0  0  0  0  0  0  0  0  0  0
    5.1048    1.4766   -0.0004 Cl  0  0  0  0  0  0  0  0  0  0  0  0
    4.4921   -1.3025   -0.0009 H   0  0  0  0  0  0  0  0  0  0  0  0
    2.4204    2.4279    0.0006 H   0  0  0  0  0  0  0  0  0  0  0  0
   -2.4193   -2.4278   -0.0001 H   0  0  0  0  0  0  0  0  0  0  0  0
   -4.4923    1.3018   -0.0012 H   0  0  0  0  0  0  0  0  0  0  0  0
  1  2  1  0  0  0  0
  2  3  2  0  0  0  0
  3  4  1  0  0  0  0
  4  5  2  0  0  0  0
  5  6  1  0  0  0  0
  6  7  1  0  0  0  0
  7  8  1  0  0  0  0
  8  9  2  0  0  0  0
  9 10  1  0  0  0  0
 10 11  1  0  0  0  0
  6 11  2  0  0  0  0
  2 11  1  0  0  0  0
  9 12  1  0  0  0  0
 12 13  2  0  0  0  0
 13 14  1  0  0  0  0
 14 15  2  0  0  0  0
  8 15  1  0  0  0  0
 15 16  1  0  0  0  0
 13 17  1  0  0  0  0
  4 18  1  0  0  0  0
  3 19  1  0  0  0  0
  5 20  1  0  0  0  0
 12 21  1  0  0  0  0
 14 22  1  0  0  0  0
M  END
$$$$
