C8H10N4O3
APtclcactv12151716323D 0   0.00000     0.00000
 
 25 26  0  0  0  0  0  0  0  0999 V2000
    2.9552   -1.7300    0.0030 C   0  0  0  0  0  0  0  0  0  0  0  0
    1.8062   -0.8211    0.0023 N   0  0  0  0  0  0  0  0  0  0  0  0
    2.0085    0.5088    0.0012 C   0  0  0  0  0  0  0  0  0  0  0  0
    3.1459    0.9391    0.0012 O   0  0  0  0  0  0  0  0  0  0  0  0
    0.9758    1.3726   -0.0004 N   0  0  0  0  0  0  0  0  0  0  0  0
   -0.3188    0.9060    0.0000 C   0  0  0  0  0  0  0  0  0  0  0  0
   -1.5409    1.5284   -0.0008 N   0  0  0  0  0  0  0  0  0  0  0  0
   -2.5062    0.5894    0.0002 C   0  0  0  0  0  0  0  0  0  0  0  0
   -3.7039    0.8060   -0.0007 O   0  0  0  0  0  0  0  0  0  0  0  0
   -1.9304   -0.6299    0.0017 N   0  0  0  0  0  0  0  0  0  0  0  0
   -0.5441   -0.4431    0.0016 C   0  0  0  0  0  0  0  0  0  0  0  0
    0.5549   -1.3256   -0.0028 C   0  0  0  0  0  0  0  0  0  0  0  0
    0.3769   -2.5311   -0.0078 O   0  0  0  0  0  0  0  0  0  0  0  0
   -2.6300   -1.9170    0.0041 C   0  0  0  0  0  0  0  0  0  0  0  0
    1.2314    2.8151   -0.0021 C   0  0  0  0  0  0  0  0  0  0  0  0
    3.8777   -1.1495    0.0025 H   0  0  0  0  0  0  0  0  0  0  0  0
    2.9214   -2.3577    0.8935 H   0  0  0  0  0  0  0  0  0  0  0  0
    2.9213   -2.3592   -0.8865 H   0  0  0  0  0  0  0  0  0  0  0  0
   -1.6861    2.4874   -0.0017 H   0  0  0  0  0  0  0  0  0  0  0  0
   -3.7064   -1.7455    0.0041 H   0  0  0  0  0  0  0  0  0  0  0  0
   -2.3522   -2.4832   -0.8849 H   0  0  0  0  0  0  0  0  0  0  0  0
   -2.3518   -2.4801    0.8950 H   0  0  0  0  0  0  0  0  0  0  0  0
    2.3067    2.9936   -0.0018 H   0  0  0  0  0  0  0  0  0  0  0  0
    0.7892    3.2614   -0.8928 H   0  0  0  0  0  0  0  0  0  0  0  0
    0.7884    3.2636    0.8871 H   0  0  0  0  0  0  0  0  0  0  0  0
  1  2  1  0  0  0  0
  2  3  1  0  0  0  0
  3  4  2  0  0  0  0
  3  5  1  0  0  0  0
  5  6  1  0  0  0  0
  6  7  1  0  0  0  0
  7  8  1  0  0  0  0
  8  9  2  0  0  0  0
  8 10  1  0  0  0  0
 10 11  1  0  0  0  0
  6 11  2  0  0  0  0
 11 12  1  0  0  0  0
  2 12  1  0  0  0  0
 12 13  2  0  0  0  0
 10 14  1  0  0  0  0
  5 15  1  0  0  0  0
  1 16  1  0  0  0  0
  1 17  1  0  0  0  0
  1 18  1  0  0  0  0
  7 19  1  0  0  0  0
 14 20  1  0  0  0  0
 14 21  1  0  0  0  0
 14 22  1  0  0  0  0
 15 23  1  0  0  0  0
 15 24  1  0  0  0  0
 15 25  1  0  0  0  0
M  END
$$$$
