C6H3Cl3
APtclcactv12211716483D 0   0.00000     0.00000
 
 12 12  0  0  0  0  0  0  0  0999 V2000
   -3.1185    0.0734   -0.0007 Cl  0  0  0  0  0  0  0  0  0  0  0  0
   -1.3830    0.0325   -0.0006 C   0  0  0  0  0  0  0  0  0  0  0  0
   -0.6633    1.2140    0.0001 C   0  0  0  0  0  0  0  0  0  0  0  0
    0.7197    1.1814    0.0002 C   0  0  0  0  0  0  0  0  0  0  0  0
    1.3830   -0.0325   -0.0001 C   0  0  0  0  0  0  0  0  0  0  0  0
    0.6633   -1.2140    0.0001 C   0  0  0  0  0  0  0  0  0  0  0  0
   -0.7197   -1.1814    0.0045 C   0  0  0  0  0  0  0  0  0  0  0  0
    1.4957   -2.7374   -0.0008 Cl  0  0  0  0  0  0  0  0  0  0  0  0
    1.6228    2.6640   -0.0000 Cl  0  0  0  0  0  0  0  0  0  0  0  0
   -1.1812    2.1617    0.0003 H   0  0  0  0  0  0  0  0  0  0  0  0
    2.4627   -0.0580   -0.0007 H   0  0  0  0  0  0  0  0  0  0  0  0
   -1.2816   -2.1038    0.0046 H   0  0  0  0  0  0  0  0  0  0  0  0
  1  2  1  0  0  0  0
  2  3  2  0  0  0  0
  3  4  1  0  0  0  0
  4  5  2  0  0  0  0
  5  6  1  0  0  0  0
  6  7  2  0  0  0  0
  2  7  1  0  0  0  0
  6  8  1  0  0  0  0
  4  9  1  0  0  0  0
  3 10  1  0  0  0  0
  5 11  1  0  0  0  0
  7 12  1  0  0  0  0
M  END
$$$$
