C6H4Cl2
APtclcactv12211716493D 0   0.00000     0.00000
 
 12 12  0  0  0  0  0  0  0  0999 V2000
   -2.7015    0.8240   -0.0003 Cl  0  0  0  0  0  0  0  0  0  0  0  0
   -1.1978   -0.0435   -0.0009 C   0  0  0  0  0  0  0  0  0  0  0  0
   -0.0000    0.6484   -0.0001 C   0  0  0  0  0  0  0  0  0  0  0  0
    1.1978   -0.0435   -0.0001 C   0  0  0  0  0  0  0  0  0  0  0  0
    1.1972   -1.4271   -0.0009 C   0  0  0  0  0  0  0  0  0  0  0  0
    0.0000   -2.1179   -0.0017 C   0  0  0  0  0  0  0  0  0  0  0  0
   -1.1972   -1.4271    0.0036 C   0  0  0  0  0  0  0  0  0  0  0  0
    2.7015    0.8240    0.0003 Cl  0  0  0  0  0  0  0  0  0  0  0  0
   -0.0000    1.7284    0.0001 H   0  0  0  0  0  0  0  0  0  0  0  0
    2.1323   -1.9674   -0.0012 H   0  0  0  0  0  0  0  0  0  0  0  0
    0.0000   -3.1979   -0.0026 H   0  0  0  0  0  0  0  0  0  0  0  0
   -2.1323   -1.9674    0.0030 H   0  0  0  0  0  0  0  0  0  0  0  0
  1  2  1  0  0  0  0
  2  3  2  0  0  0  0
  3  4  1  0  0  0  0
  4  5  2  0  0  0  0
  5  6  1  0  0  0  0
  6  7  2  0  0  0  0
  2  7  1  0  0  0  0
  4  8  1  0  0  0  0
  3  9  1  0  0  0  0
  5 10  1  0  0  0  0
  6 11  1  0  0  0  0
  7 12  1  0  0  0  0
M  END
$$$$
