C3H6O3S
APtclcactv12101715373D 0   0.00000     0.00000
 
 13 13  0  0  0  0  0  0  0  0999 V2000
   -1.1684    0.5634   -1.1986 O   0  0  0  0  0  0  0  0  0  0  0  0
   -1.4898   -0.5591    0.9904 O   0  0  0  0  0  0  0  0  0  0  0  0
    0.6493   -1.2865   -0.4744 C   0  0  0  0  0  0  0  0  0  0  0  0
    1.9350   -0.5855    0.0422 C   0  0  0  0  0  0  0  0  0  0  0  0
    1.5416    0.9079    0.0722 C   0  0  0  0  0  0  0  0  0  0  0  0
    0.2232    1.0110    0.6393 O   0  0  0  0  0  0  0  0  0  0  0  0
   -0.6423   -0.0643   -0.0373 S   0  0  0  0  0  0  0  0  0  0  0  0
    0.6940   -1.4382   -1.5528 H   0  0  0  0  0  0  0  0  0  0  0  0
    0.4844   -2.2309    0.0445 H   0  0  0  0  0  0  0  0  0  0  0  0
    2.1881   -0.9362    1.0427 H   0  0  0  0  0  0  0  0  0  0  0  0
    2.7649   -0.7504   -0.6451 H   0  0  0  0  0  0  0  0  0  0  0  0
    2.2509    1.4634    0.6856 H   0  0  0  0  0  0  0  0  0  0  0  0
    1.5388    1.3085   -0.9415 H   0  0  0  0  0  0  0  0  0  0  0  0
  1  7  2  0  0  0  0
  2  7  2  0  0  0  0
  3  7  1  0  0  0  0
  6  7  1  0  0  0  0
  3  4  1  0  0  0  0
  5  6  1  0  0  0  0
  4  5  1  0  0  0  0
  3  8  1  0  0  0  0
  3  9  1  0  0  0  0
  4 10  1  0  0  0  0
  4 11  1  0  0  0  0
  5 12  1  0  0  0  0
  5 13  1  0  0  0  0
M  END
$$$$
