C18H14
APtclcactv12211717163D 0   0.00000     0.00000
 
 32 34  0  0  0  0  0  0  0  0999 V2000
   -2.4902    0.0138    0.0433 C   0  0  0  0  0  0  0  0  0  0  0  0
   -3.5715   -0.4426   -0.7077 C   0  0  0  0  0  0  0  0  0  0  0  0
   -4.7680    0.2448   -0.6784 C   0  0  0  0  0  0  0  0  0  0  0  0
   -4.8947    1.3851    0.0942 C   0  0  0  0  0  0  0  0  0  0  0  0
   -3.8244    1.8429    0.8413 C   0  0  0  0  0  0  0  0  0  0  0  0
   -2.6236    1.1628    0.8201 C   0  0  0  0  0  0  0  0  0  0  0  0
   -1.2031   -0.7245    0.0206 C   0  0  0  0  0  0  0  0  0  0  0  0
    0.0004   -0.0267   -0.0011 C   0  0  0  0  0  0  0  0  0  0  0  0
    1.2035   -0.7254   -0.0224 C   0  0  0  0  0  0  0  0  0  0  0  0
    1.1970   -2.1195   -0.0218 C   0  0  0  0  0  0  0  0  0  0  0  0
   -0.0006   -2.8069   -0.0007 C   0  0  0  0  0  0  0  0  0  0  0  0
   -1.1975   -2.1185    0.0267 C   0  0  0  0  0  0  0  0  0  0  0  0
    2.4911    0.0120   -0.0461 C   0  0  0  0  0  0  0  0  0  0  0  0
    3.5722   -0.4446    0.7051 C   0  0  0  0  0  0  0  0  0  0  0  0
    4.7676    0.2448    0.6789 C   0  0  0  0  0  0  0  0  0  0  0  0
    4.8934    1.3872   -0.0907 C   0  0  0  0  0  0  0  0  0  0  0  0
    3.8233    1.8452   -0.8379 C   0  0  0  0  0  0  0  0  0  0  0  0
    2.6252    1.1601   -0.8240 C   0  0  0  0  0  0  0  0  0  0  0  0
   -3.4734   -1.3324   -1.3118 H   0  0  0  0  0  0  0  0  0  0  0  0
   -5.6067   -0.1082   -1.2601 H   0  0  0  0  0  0  0  0  0  0  0  0
   -5.8326    1.9201    0.1139 H   0  0  0  0  0  0  0  0  0  0  0  0
   -3.9285    2.7342    1.4422 H   0  0  0  0  0  0  0  0  0  0  0  0
   -1.7886    1.5209    1.4041 H   0  0  0  0  0  0  0  0  0  0  0  0
    0.0008    1.0533   -0.0018 H   0  0  0  0  0  0  0  0  0  0  0  0
    2.1302   -2.6628   -0.0383 H   0  0  0  0  0  0  0  0  0  0  0  0
   -0.0010   -3.8869   -0.0007 H   0  0  0  0  0  0  0  0  0  0  0  0
   -2.1312   -2.6612    0.0436 H   0  0  0  0  0  0  0  0  0  0  0  0
    3.4749   -1.3361    1.3069 H   0  0  0  0  0  0  0  0  0  0  0  0
    5.6062   -0.1082    1.2608 H   0  0  0  0  0  0  0  0  0  0  0  0
    5.8305    1.9238   -0.1079 H   0  0  0  0  0  0  0  0  0  0  0  0
    3.9267    2.7381   -1.4366 H   0  0  0  0  0  0  0  0  0  0  0  0
    1.7902    1.5185   -1.4078 H   0  0  0  0  0  0  0  0  0  0  0  0
  1  2  2  0  0  0  0
  2  3  1  0  0  0  0
  3  4  2  0  0  0  0
  4  5  1  0  0  0  0
  5  6  2  0  0  0  0
  1  6  1  0  0  0  0
  1  7  1  0  0  0  0
  7  8  2  0  0  0  0
  8  9  1  0  0  0  0
  9 10  2  0  0  0  0
 10 11  1  0  0  0  0
 11 12  2  0  0  0  0
  7 12  1  0  0  0  0
  9 13  1  0  0  0  0
 13 14  2  0  0  0  0
 14 15  1  0  0  0  0
 15 16  2  0  0  0  0
 16 17  1  0  0  0  0
 17 18  2  0  0  0  0
 13 18  1  0  0  0  0
  2 19  1  0  0  0  0
  3 20  1  0  0  0  0
  4 21  1  0  0  0  0
  5 22  1  0  0  0  0
  6 23  1  0  0  0  0
  8 24  1  0  0  0  0
 10 25  1  0  0  0  0
 11 26  1  0  0  0  0
 12 27  1  0  0  0  0
 14 28  1  0  0  0  0
 15 29  1  0  0  0  0
 16 30  1  0  0  0  0
 17 31  1  0  0  0  0
 18 32  1  0  0  0  0
M  END
$$$$
