C4H4Cl2N2O2
APtclcactv12211716363D 0   0.00000     0.00000
 
 14 14  0  0  0  0  0  0  0  0999 V2000
   -2.7828    0.6195   -0.1176 Cl  0  0  0  0  0  0  0  0  0  0  0  0
   -1.1565    0.0915   -0.1351 N   0  0  0  0  0  0  0  0  0  0  0  0
   -0.0610    0.8575    0.0169 C   0  0  0  0  0  0  0  0  0  0  0  0
   -0.0962    2.0599    0.1904 O   0  0  0  0  0  0  0  0  0  0  0  0
    1.0714    0.1477   -0.0444 N   0  0  0  0  0  0  0  0  0  0  0  0
    0.8267   -1.1625   -0.2440 C   0  0  0  0  0  0  0  0  0  0  0  0
    1.6432   -2.0531   -0.3427 O   0  0  0  0  0  0  0  0  0  0  0  0
   -0.6820   -1.2917   -0.3130 C   0  0  0  0  0  0  0  0  0  0  0  0
   -1.1970   -2.1937    0.8104 C   0  0  0  0  0  0  0  0  0  0  0  0
    2.6361    0.8200    0.1104 Cl  0  0  0  0  0  0  0  0  0  0  0  0
   -0.9900   -1.6752   -1.2858 H   0  0  0  0  0  0  0  0  0  0  0  0
   -0.9230   -1.7655    1.7746 H   0  0  0  0  0  0  0  0  0  0  0  0
   -2.2820   -2.2738    0.7436 H   0  0  0  0  0  0  0  0  0  0  0  0
   -0.7529   -3.1844    0.7134 H   0  0  0  0  0  0  0  0  0  0  0  0
  1  2  1  0  0  0  0
  2  3  1  0  0  0  0
  3  4  2  0  0  0  0
  3  5  1  0  0  0  0
  5  6  1  0  0  0  0
  6  7  2  0  0  0  0
  6  8  1  0  0  0  0
  2  8  1  0  0  0  0
  8  9  1  0  0  0  0
  5 10  1  0  0  0  0
  8 11  1  0  0  0  0
  9 12  1  0  0  0  0
  9 13  1  0  0  0  0
  9 14  1  0  0  0  0
M  END
$$$$
