C6H4Br2
APtclcactv12211716483D 0   0.00000     0.00000
 
 12 12  0  0  0  0  0  0  0  0999 V2000
   -2.8356    0.5384   -0.0002 Br  0  0  0  0  0  0  0  0  0  0  0  0
   -1.1977   -0.4066   -0.0006 C   0  0  0  0  0  0  0  0  0  0  0  0
    0.0000    0.2851    0.0001 C   0  0  0  0  0  0  0  0  0  0  0  0
    1.1977   -0.4066   -0.0002 C   0  0  0  0  0  0  0  0  0  0  0  0
    1.1972   -1.7899   -0.0012 C   0  0  0  0  0  0  0  0  0  0  0  0
    0.0000   -2.4809   -0.0019 C   0  0  0  0  0  0  0  0  0  0  0  0
   -1.1972   -1.7899    0.0042 C   0  0  0  0  0  0  0  0  0  0  0  0
    2.8356    0.5384    0.0002 Br  0  0  0  0  0  0  0  0  0  0  0  0
    0.0000    1.3651    0.0006 H   0  0  0  0  0  0  0  0  0  0  0  0
    2.1323   -2.3302   -0.0018 H   0  0  0  0  0  0  0  0  0  0  0  0
    0.0000   -3.5609   -0.0027 H   0  0  0  0  0  0  0  0  0  0  0  0
   -2.1323   -2.3302    0.0037 H   0  0  0  0  0  0  0  0  0  0  0  0
  1  2  1  0  0  0  0
  2  3  2  0  0  0  0
  3  4  1  0  0  0  0
  4  5  2  0  0  0  0
  5  6  1  0  0  0  0
  6  7  2  0  0  0  0
  2  7  1  0  0  0  0
  4  8  1  0  0  0  0
  3  9  1  0  0  0  0
  5 10  1  0  0  0  0
  6 11  1  0  0  0  0
  7 12  1  0  0  0  0
M  END
$$$$
