C16H23FN2O6
APtclcactv12211717133D 0   0.00000     0.00000
 
 48 48  0  0  0  0  0  0  0  0999 V2000
   -3.9416    0.4444    0.5209 C   0  0  0  0  0  0  0  0  0  0  0  0
   -5.2678    0.3020   -0.1804 C   0  0  0  0  0  0  0  0  0  0  0  0
   -6.0667   -0.8322    0.4647 C   0  0  0  0  0  0  0  0  0  0  0  0
   -6.0515    1.6105   -0.0601 C   0  0  0  0  0  0  0  0  0  0  0  0
   -5.0316   -0.0170   -1.6581 C   0  0  0  0  0  0  0  0  0  0  0  0
   -3.6639   -0.2863    1.4423 O   0  0  0  0  0  0  0  0  0  0  0  0
   -3.0666    1.3793    0.1185 O   0  0  0  0  0  0  0  0  0  0  0  0
   -1.8091    1.4594    0.8401 C   0  0  0  0  0  0  0  0  0  0  0  0
   -0.9022    0.4147    0.3582 N   0  0  0  0  0  0  0  0  0  0  0  0
    0.1247    0.7428   -0.4468 C   0  0  0  0  0  0  0  0  0  0  0  0
    0.9733   -0.1964   -0.9042 N   0  0  0  0  0  0  0  0  0  0  0  0
    0.8066   -1.4894   -0.5602 C   0  0  0  0  0  0  0  0  0  0  0  0
   -0.2704   -1.8505    0.2876 C   0  0  0  0  0  0  0  0  0  0  0  0
   -1.1043   -0.8874    0.7362 C   0  0  0  0  0  0  0  0  0  0  0  0
   -0.4577   -3.1397    0.6454 F   0  0  0  0  0  0  0  0  0  0  0  0
    1.5742   -2.3393   -0.9745 O   0  0  0  0  0  0  0  0  0  0  0  0
    2.0828    0.1879   -1.7803 C   0  0  0  0  0  0  0  0  0  0  0  0
    3.1108    0.8500   -0.9973 O   0  0  0  0  0  0  0  0  0  0  0  0
    3.9385    0.0649   -0.2901 C   0  0  0  0  0  0  0  0  0  0  0  0
    4.9531    0.6821    0.6377 C   0  0  0  0  0  0  0  0  0  0  0  0
    5.7629   -0.4243    1.3166 C   0  0  0  0  0  0  0  0  0  0  0  0
    5.8939    1.5846   -0.1631 C   0  0  0  0  0  0  0  0  0  0  0  0
    4.2325    1.5127    1.7015 C   0  0  0  0  0  0  0  0  0  0  0  0
    3.8701   -1.1366   -0.3973 O   0  0  0  0  0  0  0  0  0  0  0  0
    0.2882    1.9047   -0.7660 O   0  0  0  0  0  0  0  0  0  0  0  0
   -6.2350   -0.6050    1.5174 H   0  0  0  0  0  0  0  0  0  0  0  0
   -7.0260   -0.9353   -0.0426 H   0  0  0  0  0  0  0  0  0  0  0  0
   -5.5084   -1.7644    0.3790 H   0  0  0  0  0  0  0  0  0  0  0  0
   -5.4824    2.4185   -0.5197 H   0  0  0  0  0  0  0  0  0  0  0  0
   -7.0108    1.5074   -0.5674 H   0  0  0  0  0  0  0  0  0  0  0  0
   -6.2198    1.8377    0.9926 H   0  0  0  0  0  0  0  0  0  0  0  0
   -4.4733   -0.9492   -1.7438 H   0  0  0  0  0  0  0  0  0  0  0  0
   -5.9909   -0.1200   -2.1654 H   0  0  0  0  0  0  0  0  0  0  0  0
   -4.4625    0.7910   -2.1177 H   0  0  0  0  0  0  0  0  0  0  0  0
   -1.3571    2.4374    0.6750 H   0  0  0  0  0  0  0  0  0  0  0  0
   -1.9919    1.3188    1.9054 H   0  0  0  0  0  0  0  0  0  0  0  0
   -1.9306   -1.1428    1.3830 H   0  0  0  0  0  0  0  0  0  0  0  0
    2.5006   -0.7029   -2.2494 H   0  0  0  0  0  0  0  0  0  0  0  0
    1.7187    0.8675   -2.5508 H   0  0  0  0  0  0  0  0  0  0  0  0
    6.2762   -1.0161    0.5587 H   0  0  0  0  0  0  0  0  0  0  0  0
    6.4967    0.0221    1.9877 H   0  0  0  0  0  0  0  0  0  0  0  0
    5.0926   -1.0672    1.8871 H   0  0  0  0  0  0  0  0  0  0  0  0
    5.3170    2.3728   -0.6468 H   0  0  0  0  0  0  0  0  0  0  0  0
    6.6277    2.0310    0.5079 H   0  0  0  0  0  0  0  0  0  0  0  0
    6.4073    0.9928   -0.9210 H   0  0  0  0  0  0  0  0  0  0  0  0
    3.5622    0.8698    2.2720 H   0  0  0  0  0  0  0  0  0  0  0  0
    4.9663    1.9592    2.3726 H   0  0  0  0  0  0  0  0  0  0  0  0
    3.6556    2.3010    1.2179 H   0  0  0  0  0  0  0  0  0  0  0  0
  1  2  1  0  0  0  0
  2  3  1  0  0  0  0
  2  4  1  0  0  0  0
  2  5  1  0  0  0  0
  1  6  2  0  0  0  0
  1  7  1  0  0  0  0
  7  8  1  0  0  0  0
  8  9  1  0  0  0  0
  9 10  1  0  0  0  0
 10 11  1  0  0  0  0
 11 12  1  0  0  0  0
 12 13  1  0  0  0  0
 13 14  2  0  0  0  0
  9 14  1  0  0  0  0
 13 15  1  0  0  0  0
 12 16  2  0  0  0  0
 11 17  1  0  0  0  0
 17 18  1  0  0  0  0
 18 19  1  0  0  0  0
 19 20  1  0  0  0  0
 20 21  1  0  0  0  0
 20 22  1  0  0  0  0
 20 23  1  0  0  0  0
 19 24  2  0  0  0  0
 10 25  2  0  0  0  0
  3 26  1  0  0  0  0
  3 27  1  0  0  0  0
  3 28  1  0  0  0  0
  4 29  1  0  0  0  0
  4 30  1  0  0  0  0
  4 31  1  0  0  0  0
  5 32  1  0  0  0  0
  5 33  1  0  0  0  0
  5 34  1  0  0  0  0
  8 35  1  0  0  0  0
  8 36  1  0  0  0  0
 14 37  1  0  0  0  0
 17 38  1  0  0  0  0
 17 39  1  0  0  0  0
 21 40  1  0  0  0  0
 21 41  1  0  0  0  0
 21 42  1  0  0  0  0
 22 43  1  0  0  0  0
 22 44  1  0  0  0  0
 22 45  1  0  0  0  0
 23 46  1  0  0  0  0
 23 47  1  0  0  0  0
 23 48  1  0  0  0  0
M  END
$$$$
