C3H2Cl2N2O2
APtclcactv12101715353D 0   0.00000     0.00000
 
 11 11  0  0  0  0  0  0  0  0999 V2000
   -2.9147    0.1334   -0.0005 Cl  0  0  0  0  0  0  0  0  0  0  0  0
   -1.2433   -0.2279   -0.0011 N   0  0  0  0  0  0  0  0  0  0  0  0
   -0.2297    0.6566   -0.0001 C   0  0  0  0  0  0  0  0  0  0  0  0
   -0.3850    1.8620    0.0009 O   0  0  0  0  0  0  0  0  0  0  0  0
    0.9683    0.0610   -0.0002 N   0  0  0  0  0  0  0  0  0  0  0  0
    0.8558   -1.2819   -0.0013 C   0  0  0  0  0  0  0  0  0  0  0  0
    1.7576   -2.0923   -0.0011 O   0  0  0  0  0  0  0  0  0  0  0  0
   -0.6327   -1.5685    0.0036 C   0  0  0  0  0  0  0  0  0  0  0  0
    2.4583    0.9002    0.0001 Cl  0  0  0  0  0  0  0  0  0  0  0  0
   -0.9140   -2.1205    0.9004 H   0  0  0  0  0  0  0  0  0  0  0  0
   -0.9202   -2.1185   -0.8925 H   0  0  0  0  0  0  0  0  0  0  0  0
  1  2  1  0  0  0  0
  2  3  1  0  0  0  0
  3  4  2  0  0  0  0
  3  5  1  0  0  0  0
  5  6  1  0  0  0  0
  6  7  2  0  0  0  0
  6  8  1  0  0  0  0
  2  8  1  0  0  0  0
  5  9  1  0  0  0  0
  8 10  1  0  0  0  0
  8 11  1  0  0  0  0
M  END
$$$$
