C13H14
APtclcactv12071713263D 0   0.00000     0.00000
 
 27 28  0  0  0  0  0  0  0  0999 V2000
    3.2223   -0.8765   -0.0009 C   0  0  0  0  0  0  0  0  0  0  0  0
    1.9746   -0.0284   -0.0008 C   0  0  0  0  0  0  0  0  0  0  0  0
    2.1070    1.3250   -0.0002 C   0  0  0  0  0  0  0  0  0  0  0  0
    0.9793    2.1280    0.0004 C   0  0  0  0  0  0  0  0  0  0  0  0
   -0.2865    1.6004    0.0004 C   0  0  0  0  0  0  0  0  0  0  0  0
   -0.4793    0.2118   -0.0002 C   0  0  0  0  0  0  0  0  0  0  0  0
   -1.7180   -0.4438   -0.0004 C   0  0  0  0  0  0  0  0  0  0  0  0
   -1.7826   -1.8141    0.0006 C   0  0  0  0  0  0  0  0  0  0  0  0
   -0.6432   -2.6001    0.0017 C   0  0  0  0  0  0  0  0  0  0  0  0
    0.5823   -2.0111    0.0014 C   0  0  0  0  0  0  0  0  0  0  0  0
    0.6957   -0.6112   -0.0014 C   0  0  0  0  0  0  0  0  0  0  0  0
   -3.0657    0.2352   -0.0027 C   0  0  0  0  0  0  0  0  0  0  0  0
   -1.3845    2.6354    0.0020 C   0  0  0  0  0  0  0  0  0  0  0  0
    3.5225   -1.0812    1.0267 H   0  0  0  0  0  0  0  0  0  0  0  0
    3.0226   -1.8166   -0.5153 H   0  0  0  0  0  0  0  0  0  0  0  0
    4.0232   -0.3445   -0.5143 H   0  0  0  0  0  0  0  0  0  0  0  0
    3.0922    1.7662    0.0002 H   0  0  0  0  0  0  0  0  0  0  0  0
    1.0844    3.2049    0.0009 H   0  0  0  0  0  0  0  0  0  0  0  0
   -2.7589   -2.2803    0.0010 H   0  0  0  0  0  0  0  0  0  0  0  0
   -0.7213   -3.6764    0.0031 H   0  0  0  0  0  0  0  0  0  0  0  0
    1.4526   -2.6518    0.0018 H   0  0  0  0  0  0  0  0  0  0  0  0
   -3.3215    0.5316   -1.0200 H   0  0  0  0  0  0  0  0  0  0  0  0
   -3.8205   -0.4542    0.3755 H   0  0  0  0  0  0  0  0  0  0  0  0
   -3.0285    1.1186    0.6347 H   0  0  0  0  0  0  0  0  0  0  0  0
   -1.7529    2.7758   -1.0142 H   0  0  0  0  0  0  0  0  0  0  0  0
   -2.2007    2.2984    0.6411 H   0  0  0  0  0  0  0  0  0  0  0  0
   -0.9931    3.5798    0.3803 H   0  0  0  0  0  0  0  0  0  0  0  0
  1  2  1  0  0  0  0
  2  3  2  0  0  0  0
  3  4  1  0  0  0  0
  4  5  2  0  0  0  0
  5  6  1  0  0  0  0
  6  7  2  0  0  0  0
  7  8  1  0  0  0  0
  8  9  2  0  0  0  0
  9 10  1  0  0  0  0
 10 11  2  0  0  0  0
  2 11  1  0  0  0  0
  6 11  1  0  0  0  0
  7 12  1  0  0  0  0
  5 13  1  0  0  0  0
  1 14  1  0  0  0  0
  1 15  1  0  0  0  0
  1 16  1  0  0  0  0
  3 17  1  0  0  0  0
  4 18  1  0  0  0  0
  8 19  1  0  0  0  0
  9 20  1  0  0  0  0
 10 21  1  0  0  0  0
 12 22  1  0  0  0  0
 12 23  1  0  0  0  0
 12 24  1  0  0  0  0
 13 25  1  0  0  0  0
 13 26  1  0  0  0  0
 13 27  1  0  0  0  0
M  END
$$$$
