C5H8
APtclcactv12211716433D 0   0.00000     0.00000
 
 13 12  0  0  0  0  0  0  0  0999 V2000
    2.3279    0.0892    0.1687 C   0  0  0  0  0  0  0  0  0  0  0  0
    1.1612    0.2422   -0.4071 C   0  0  0  0  0  0  0  0  0  0  0  0
   -0.0000   -0.6277    0.0001 C   0  0  0  0  0  0  0  0  0  0  0  0
   -1.1612    0.2425    0.4069 C   0  0  0  0  0  0  0  0  0  0  0  0
   -2.3278    0.0893   -0.1689 C   0  0  0  0  0  0  0  0  0  0  0  0
    3.1601    0.7126   -0.1232 H   0  0  0  0  0  0  0  0  0  0  0  0
    2.4563   -0.6574    0.9385 H   0  0  0  0  0  0  0  0  0  0  0  0
    1.0316    0.9918   -1.1738 H   0  0  0  0  0  0  0  0  0  0  0  0
   -0.2944   -1.2572   -0.8396 H   0  0  0  0  0  0  0  0  0  0  0  0
    0.2944   -1.2568    0.8402 H   0  0  0  0  0  0  0  0  0  0  0  0
   -1.0315    0.9925    1.1731 H   0  0  0  0  0  0  0  0  0  0  0  0
   -3.1600    0.7129    0.1227 H   0  0  0  0  0  0  0  0  0  0  0  0
   -2.4575   -0.6607   -0.9351 H   0  0  0  0  0  0  0  0  0  0  0  0
  1  2  2  0  0  0  0
  2  3  1  0  0  0  0
  3  4  1  0  0  0  0
  4  5  2  0  0  0  0
  1  6  1  0  0  0  0
  1  7  1  0  0  0  0
  2  8  1  0  0  0  0
  3  9  1  0  0  0  0
  3 10  1  0  0  0  0
  4 11  1  0  0  0  0
  5 12  1  0  0  0  0
  5 13  1  0  0  0  0
M  END
$$$$
