C10H6Br2
APtclcactv12151716543D 0   0.00000     0.00000
 
 18 19  0  0  0  0  0  0  0  0999 V2000
   -3.2888    0.5612   -0.0003 Br  0  0  0  0  0  0  0  0  0  0  0  0
   -1.3980    0.5341   -0.0003 C   0  0  0  0  0  0  0  0  0  0  0  0
   -0.6967    1.7015   -0.0002 C   0  0  0  0  0  0  0  0  0  0  0  0
    0.6967    1.7015    0.0003 C   0  0  0  0  0  0  0  0  0  0  0  0
    1.3980    0.5341    0.0003 C   0  0  0  0  0  0  0  0  0  0  0  0
    0.7087   -0.6917    0.0002 C   0  0  0  0  0  0  0  0  0  0  0  0
    1.3974   -1.9161   -0.0003 C   0  0  0  0  0  0  0  0  0  0  0  0
    0.6966   -3.0832   -0.0007 C   0  0  0  0  0  0  0  0  0  0  0  0
   -0.6967   -3.0831   -0.0006 C   0  0  0  0  0  0  0  0  0  0  0  0
   -1.3975   -1.9160   -0.0002 C   0  0  0  0  0  0  0  0  0  0  0  0
   -0.7087   -0.6917    0.0056 C   0  0  0  0  0  0  0  0  0  0  0  0
    3.2888    0.5612   -0.0002 Br  0  0  0  0  0  0  0  0  0  0  0  0
   -1.2285    2.6415   -0.0010 H   0  0  0  0  0  0  0  0  0  0  0  0
    1.2286    2.6415    0.0003 H   0  0  0  0  0  0  0  0  0  0  0  0
    2.4773   -1.9314   -0.0007 H   0  0  0  0  0  0  0  0  0  0  0  0
    1.2285   -4.0231   -0.0015 H   0  0  0  0  0  0  0  0  0  0  0  0
   -1.2287   -4.0230   -0.0013 H   0  0  0  0  0  0  0  0  0  0  0  0
   -2.4774   -1.9313   -0.0005 H   0  0  0  0  0  0  0  0  0  0  0  0
  1  2  1  0  0  0  0
  2  3  2  0  0  0  0
  3  4  1  0  0  0  0
  4  5  2  0  0  0  0
  5  6  1  0  0  0  0
  6  7  2  0  0  0  0
  7  8  1  0  0  0  0
  8  9  2  0  0  0  0
  9 10  1  0  0  0  0
 10 11  2  0  0  0  0
  2 11  1  0  0  0  0
  6 11  1  0  0  0  0
  5 12  1  0  0  0  0
  3 13  1  0  0  0  0
  4 14  1  0  0  0  0
  7 15  1  0  0  0  0
  8 16  1  0  0  0  0
  9 17  1  0  0  0  0
 10 18  1  0  0  0  0
M  END
$$$$
