C6H4Cl2
APtclcactv12211716493D 0   0.00000     0.00000
 
 12 12  0  0  0  0  0  0  0  0999 V2000
   -3.1188    0.0000   -0.0010 Cl  0  0  0  0  0  0  0  0  0  0  0  0
   -1.3828    0.0000   -0.0007 C   0  0  0  0  0  0  0  0  0  0  0  0
   -0.6910    1.1982    0.0011 C   0  0  0  0  0  0  0  0  0  0  0  0
    0.6910    1.1982    0.0013 C   0  0  0  0  0  0  0  0  0  0  0  0
    1.3828   -0.0000    0.0002 C   0  0  0  0  0  0  0  0  0  0  0  0
    0.6910   -1.1982   -0.0007 C   0  0  0  0  0  0  0  0  0  0  0  0
   -0.6910   -1.1982    0.0035 C   0  0  0  0  0  0  0  0  0  0  0  0
    3.1188   -0.0000   -0.0007 Cl  0  0  0  0  0  0  0  0  0  0  0  0
   -1.2310    2.1335    0.0020 H   0  0  0  0  0  0  0  0  0  0  0  0
    1.2310    2.1335    0.0020 H   0  0  0  0  0  0  0  0  0  0  0  0
    1.2310   -2.1335   -0.0020 H   0  0  0  0  0  0  0  0  0  0  0  0
   -1.2310   -2.1335    0.0029 H   0  0  0  0  0  0  0  0  0  0  0  0
  1  2  1  0  0  0  0
  2  3  2  0  0  0  0
  3  4  1  0  0  0  0
  4  5  2  0  0  0  0
  5  6  1  0  0  0  0
  6  7  2  0  0  0  0
  2  7  1  0  0  0  0
  5  8  1  0  0  0  0
  3  9  1  0  0  0  0
  4 10  1  0  0  0  0
  6 11  1  0  0  0  0
  7 12  1  0  0  0  0
M  END
$$$$
