C6H10
APtclcactv12211716553D 0   0.00000     0.00000
 
 16 15  0  0  0  0  0  0  0  0999 V2000
    2.7788   -0.6119   -0.0534 C   0  0  0  0  0  0  0  0  0  0  0  0
    1.8927    0.3174    0.2064 C   0  0  0  0  0  0  0  0  0  0  0  0
    0.5681    0.3176   -0.5123 C   0  0  0  0  0  0  0  0  0  0  0  0
   -0.5681    0.3172    0.5124 C   0  0  0  0  0  0  0  0  0  0  0  0
   -1.8927    0.3174   -0.2063 C   0  0  0  0  0  0  0  0  0  0  0  0
   -2.7787   -0.6120    0.0530 C   0  0  0  0  0  0  0  0  0  0  0  0
    3.7280   -0.6120    0.4616 H   0  0  0  0  0  0  0  0  0  0  0  0
    2.5582   -1.3804   -0.7795 H   0  0  0  0  0  0  0  0  0  0  0  0
    2.1115    1.0833    0.9357 H   0  0  0  0  0  0  0  0  0  0  0  0
    0.4938    1.2077   -1.1369 H   0  0  0  0  0  0  0  0  0  0  0  0
    0.4938   -0.5722   -1.1375 H   0  0  0  0  0  0  0  0  0  0  0  0
   -0.4938   -0.5729    1.1370 H   0  0  0  0  0  0  0  0  0  0  0  0
   -0.4938    1.2070    1.1376 H   0  0  0  0  0  0  0  0  0  0  0  0
   -2.1115    1.0838   -0.9351 H   0  0  0  0  0  0  0  0  0  0  0  0
   -3.7280   -0.6118   -0.4621 H   0  0  0  0  0  0  0  0  0  0  0  0
   -2.5599   -1.3783    0.7818 H   0  0  0  0  0  0  0  0  0  0  0  0
  1  2  2  0  0  0  0
  2  3  1  0  0  0  0
  3  4  1  0  0  0  0
  4  5  1  0  0  0  0
  5  6  2  0  0  0  0
  1  7  1  0  0  0  0
  1  8  1  0  0  0  0
  2  9  1  0  0  0  0
  3 10  1  0  0  0  0
  3 11  1  0  0  0  0
  4 12  1  0  0  0  0
  4 13  1  0  0  0  0
  5 14  1  0  0  0  0
  6 15  1  0  0  0  0
  6 16  1  0  0  0  0
M  END
$$$$
