C7H12
APtclcactv12151716203D 0   0.00000     0.00000
 
 19 18  0  0  0  0  0  0  0  0999 V2000
    3.4994   -0.1435   -0.3335 C   0  0  0  0  0  0  0  0  0  0  0  0
    2.4429   -0.2964    0.4258 C   0  0  0  0  0  0  0  0  0  0  0  0
    1.2307    0.5735    0.2143 C   0  0  0  0  0  0  0  0  0  0  0  0
    0.0000   -0.3099    0.0001 C   0  0  0  0  0  0  0  0  0  0  0  0
   -1.2307    0.5733   -0.2146 C   0  0  0  0  0  0  0  0  0  0  0  0
   -2.4429   -0.2968   -0.4256 C   0  0  0  0  0  0  0  0  0  0  0  0
   -3.4994   -0.1435    0.3336 C   0  0  0  0  0  0  0  0  0  0  0  0
    4.3682   -0.7670   -0.1819 H   0  0  0  0  0  0  0  0  0  0  0  0
    3.5001    0.6030   -1.1139 H   0  0  0  0  0  0  0  0  0  0  0  0
    2.4406   -1.0460    1.2034 H   0  0  0  0  0  0  0  0  0  0  0  0
    1.0779    1.2031    1.0909 H   0  0  0  0  0  0  0  0  0  0  0  0
    1.3835    1.2026   -0.6627 H   0  0  0  0  0  0  0  0  0  0  0  0
    0.1528   -0.9395   -0.8764 H   0  0  0  0  0  0  0  0  0  0  0  0
   -0.1527   -0.9389    0.8771 H   0  0  0  0  0  0  0  0  0  0  0  0
   -1.3835    1.2029    0.6620 H   0  0  0  0  0  0  0  0  0  0  0  0
   -1.0779    1.2024   -1.0916 H   0  0  0  0  0  0  0  0  0  0  0  0
   -2.4406   -1.0469   -1.2026 H   0  0  0  0  0  0  0  0  0  0  0  0
   -4.3681   -0.7671    0.1824 H   0  0  0  0  0  0  0  0  0  0  0  0
   -3.5017    0.6066    1.1107 H   0  0  0  0  0  0  0  0  0  0  0  0
  1  2  2  0  0  0  0
  2  3  1  0  0  0  0
  3  4  1  0  0  0  0
  4  5  1  0  0  0  0
  5  6  1  0  0  0  0
  6  7  2  0  0  0  0
  1  8  1  0  0  0  0
  1  9  1  0  0  0  0
  2 10  1  0  0  0  0
  3 11  1  0  0  0  0
  3 12  1  0  0  0  0
  4 13  1  0  0  0  0
  4 14  1  0  0  0  0
  5 15  1  0  0  0  0
  5 16  1  0  0  0  0
  6 17  1  0  0  0  0
  7 18  1  0  0  0  0
  7 19  1  0  0  0  0
M  END
$$$$
