C12H9NO3
APtclcactv12111704543D 0   0.00000     0.00000
 
 25 26  0  0  0  0  0  0  0  0999 V2000
    0.0139   -1.2478   -0.0502 C   0  0  0  0  0  0  0  0  0  0  0  0
    0.7722   -2.4061   -0.1374 C   0  0  0  0  0  0  0  0  0  0  0  0
    2.1597   -2.3428   -0.1641 C   0  0  0  0  0  0  0  0  0  0  0  0
    2.8115   -1.1476   -0.1058 C   0  0  0  0  0  0  0  0  0  0  0  0
    2.0809    0.0507   -0.0164 C   0  0  0  0  0  0  0  0  0  0  0  0
    2.7331    1.2947    0.0450 C   0  0  0  0  0  0  0  0  0  0  0  0
    2.0065    2.4451    0.1309 C   0  0  0  0  0  0  0  0  0  0  0  0
    0.6189    2.4174    0.1601 C   0  0  0  0  0  0  0  0  0  0  0  0
   -0.0655    1.2099    0.1022 C   0  0  0  0  0  0  0  0  0  0  0  0
    0.6673    0.0035    0.0114 C   0  0  0  0  0  0  0  0  0  0  0  0
   -1.5385    1.1861    0.1345 C   0  0  0  0  0  0  0  0  0  0  0  0
   -2.1176    0.6955    1.0835 O   0  0  0  0  0  0  0  0  0  0  0  0
   -2.2435    1.7084   -0.8885 O   0  0  0  0  0  0  0  0  0  0  0  0
   -1.4612   -1.3213   -0.0283 C   0  0  0  0  0  0  0  0  0  0  0  0
   -2.1793   -0.8089   -1.0538 O   0  0  0  0  0  0  0  0  0  0  0  0
   -2.0700   -1.8789    0.9775 N   0  0  0  0  0  0  0  0  0  0  0  0
    0.2793   -3.3659   -0.1844 H   0  0  0  0  0  0  0  0  0  0  0  0
    2.7315   -3.2565   -0.2319 H   0  0  0  0  0  0  0  0  0  0  0  0
    3.8909   -1.1205   -0.1280 H   0  0  0  0  0  0  0  0  0  0  0  0
    3.8120    1.3391    0.0244 H   0  0  0  0  0  0  0  0  0  0  0  0
    2.5194    3.3944    0.1774 H   0  0  0  0  0  0  0  0  0  0  0  0
    0.0665    3.3429    0.2288 H   0  0  0  0  0  0  0  0  0  0  0  0
   -3.2074    1.6697   -0.8224 H   0  0  0  0  0  0  0  0  0  0  0  0
   -3.1360   -0.9038   -0.9502 H   0  0  0  0  0  0  0  0  0  0  0  0
   -3.0331   -1.9928    0.9589 H   0  0  0  0  0  0  0  0  0  0  0  0
  1  2  2  0  0  0  0
  2  3  1  0  0  0  0
  3  4  2  0  0  0  0
  4  5  1  0  0  0  0
  5  6  2  0  0  0  0
  6  7  1  0  0  0  0
  7  8  2  0  0  0  0
  8  9  1  0  0  0  0
  9 10  2  0  0  0  0
  1 10  1  0  0  0  0
  5 10  1  0  0  0  0
  9 11  1  0  0  0  0
 11 12  2  0  0  0  0
 11 13  1  0  0  0  0
  1 14  1  0  0  0  0
 14 15  1  0  0  0  0
 14 16  2  0  0  0  0
  2 17  1  0  0  0  0
  3 18  1  0  0  0  0
  4 19  1  0  0  0  0
  6 20  1  0  0  0  0
  7 21  1  0  0  0  0
  8 22  1  0  0  0  0
 13 23  1  0  0  0  0
 15 24  1  0  0  0  0
 16 25  1  0  0  0  0
M  END
$$$$
