C8H16Cl2
APtclcactv12151716353D 0   0.00000     0.00000
 
 26 25  0  0  0  0  0  0  0  0999 V2000
   -5.8708    0.2242   -0.0000 Cl  0  0  0  0  0  0  0  0  0  0  0  0
   -4.3351   -0.7205    0.0000 C   0  0  0  0  0  0  0  0  0  0  0  0
   -3.1450    0.2410   -0.0000 C   0  0  0  0  0  0  0  0  0  0  0  0
   -1.8418   -0.5606    0.0000 C   0  0  0  0  0  0  0  0  0  0  0  0
   -0.6516    0.4008    0.0000 C   0  0  0  0  0  0  0  0  0  0  0  0
    0.6516   -0.4008    0.0000 C   0  0  0  0  0  0  0  0  0  0  0  0
    1.8418    0.5606    0.0000 C   0  0  0  0  0  0  0  0  0  0  0  0
    3.1450   -0.2410   -0.0000 C   0  0  0  0  0  0  0  0  0  0  0  0
    4.3351    0.7205    0.0000 C   0  0  0  0  0  0  0  0  0  0  0  0
    5.8708   -0.2242   -0.0000 Cl  0  0  0  0  0  0  0  0  0  0  0  0
   -4.2949   -1.3485    0.8900 H   0  0  0  0  0  0  0  0  0  0  0  0
   -4.2949   -1.3485   -0.8900 H   0  0  0  0  0  0  0  0  0  0  0  0
   -3.1852    0.8690   -0.8900 H   0  0  0  0  0  0  0  0  0  0  0  0
   -3.1852    0.8690    0.8900 H   0  0  0  0  0  0  0  0  0  0  0  0
   -1.8015   -1.1887    0.8900 H   0  0  0  0  0  0  0  0  0  0  0  0
   -1.8015   -1.1887   -0.8900 H   0  0  0  0  0  0  0  0  0  0  0  0
   -0.6919    1.0288   -0.8900 H   0  0  0  0  0  0  0  0  0  0  0  0
   -0.6919    1.0288    0.8900 H   0  0  0  0  0  0  0  0  0  0  0  0
    0.6919   -1.0288    0.8900 H   0  0  0  0  0  0  0  0  0  0  0  0
    0.6919   -1.0288   -0.8900 H   0  0  0  0  0  0  0  0  0  0  0  0
    1.8015    1.1887   -0.8900 H   0  0  0  0  0  0  0  0  0  0  0  0
    1.8015    1.1887    0.8900 H   0  0  0  0  0  0  0  0  0  0  0  0
    3.1852   -0.8690    0.8900 H   0  0  0  0  0  0  0  0  0  0  0  0
    3.1852   -0.8690   -0.8900 H   0  0  0  0  0  0  0  0  0  0  0  0
    4.2949    1.3485   -0.8900 H   0  0  0  0  0  0  0  0  0  0  0  0
    4.2949    1.3485    0.8900 H   0  0  0  0  0  0  0  0  0  0  0  0
  1  2  1  0  0  0  0
  2  3  1  0  0  0  0
  3  4  1  0  0  0  0
  4  5  1  0  0  0  0
  5  6  1  0  0  0  0
  6  7  1  0  0  0  0
  7  8  1  0  0  0  0
  8  9  1  0  0  0  0
  9 10  1  0  0  0  0
  2 11  1  0  0  0  0
  2 12  1  0  0  0  0
  3 13  1  0  0  0  0
  3 14  1  0  0  0  0
  4 15  1  0  0  0  0
  4 16  1  0  0  0  0
  5 17  1  0  0  0  0
  5 18  1  0  0  0  0
  6 19  1  0  0  0  0
  6 20  1  0  0  0  0
  7 21  1  0  0  0  0
  7 22  1  0  0  0  0
  8 23  1  0  0  0  0
  8 24  1  0  0  0  0
  9 25  1  0  0  0  0
  9 26  1  0  0  0  0
M  END
$$$$
