C8H16Br2
APtclcactv12151716353D 0   0.00000     0.00000
 
 26 25  0  0  0  0  0  0  0  0999 V2000
   -6.0164    0.1245   -0.0000 Br  0  0  0  0  0  0  0  0  0  0  0  0
   -4.3109   -0.8535    0.0000 C   0  0  0  0  0  0  0  0  0  0  0  0
   -3.1509    0.1441    0.0000 C   0  0  0  0  0  0  0  0  0  0  0  0
   -1.8236   -0.6170    0.0000 C   0  0  0  0  0  0  0  0  0  0  0  0
   -0.6636    0.3806    0.0000 C   0  0  0  0  0  0  0  0  0  0  0  0
    0.6636   -0.3806    0.0000 C   0  0  0  0  0  0  0  0  0  0  0  0
    1.8236    0.6170    0.0000 C   0  0  0  0  0  0  0  0  0  0  0  0
    3.1509   -0.1441    0.0000 C   0  0  0  0  0  0  0  0  0  0  0  0
    4.3109    0.8535    0.0000 C   0  0  0  0  0  0  0  0  0  0  0  0
    6.0164   -0.1245   -0.0000 Br  0  0  0  0  0  0  0  0  0  0  0  0
   -4.2513   -1.4800    0.8900 H   0  0  0  0  0  0  0  0  0  0  0  0
   -4.2513   -1.4800   -0.8900 H   0  0  0  0  0  0  0  0  0  0  0  0
   -3.2104    0.7706   -0.8900 H   0  0  0  0  0  0  0  0  0  0  0  0
   -3.2104    0.7706    0.8900 H   0  0  0  0  0  0  0  0  0  0  0  0
   -1.7641   -1.2435    0.8900 H   0  0  0  0  0  0  0  0  0  0  0  0
   -1.7641   -1.2435   -0.8900 H   0  0  0  0  0  0  0  0  0  0  0  0
   -0.7232    1.0071   -0.8900 H   0  0  0  0  0  0  0  0  0  0  0  0
   -0.7232    1.0071    0.8900 H   0  0  0  0  0  0  0  0  0  0  0  0
    0.7232   -1.0071    0.8900 H   0  0  0  0  0  0  0  0  0  0  0  0
    0.7232   -1.0071   -0.8900 H   0  0  0  0  0  0  0  0  0  0  0  0
    1.7641    1.2435   -0.8900 H   0  0  0  0  0  0  0  0  0  0  0  0
    1.7641    1.2435    0.8900 H   0  0  0  0  0  0  0  0  0  0  0  0
    3.2104   -0.7706    0.8900 H   0  0  0  0  0  0  0  0  0  0  0  0
    3.2104   -0.7706   -0.8900 H   0  0  0  0  0  0  0  0  0  0  0  0
    4.2513    1.4800   -0.8900 H   0  0  0  0  0  0  0  0  0  0  0  0
    4.2513    1.4800    0.8900 H   0  0  0  0  0  0  0  0  0  0  0  0
  1  2  1  0  0  0  0
  2  3  1  0  0  0  0
  3  4  1  0  0  0  0
  4  5  1  0  0  0  0
  5  6  1  0  0  0  0
  6  7  1  0  0  0  0
  7  8  1  0  0  0  0
  8  9  1  0  0  0  0
  9 10  1  0  0  0  0
  2 11  1  0  0  0  0
  2 12  1  0  0  0  0
  3 13  1  0  0  0  0
  3 14  1  0  0  0  0
  4 15  1  0  0  0  0
  4 16  1  0  0  0  0
  5 17  1  0  0  0  0
  5 18  1  0  0  0  0
  6 19  1  0  0  0  0
  6 20  1  0  0  0  0
  7 21  1  0  0  0  0
  7 22  1  0  0  0  0
  8 23  1  0  0  0  0
  8 24  1  0  0  0  0
  9 25  1  0  0  0  0
  9 26  1  0  0  0  0
M  END
$$$$
