C8H10N2O
APtclcactv12151716313D 0   0.00000     0.00000
 
 21 21  0  0  0  0  0  0  0  0999 V2000
    1.2377   -0.9784    0.0350 C   0  0  0  0  0  0  0  0  0  0  0  0
    0.1934   -0.0997   -0.2204 C   0  0  0  0  0  0  0  0  0  0  0  0
    0.4433    1.2634   -0.3116 C   0  0  0  0  0  0  0  0  0  0  0  0
    1.7287    1.7408   -0.1482 C   0  0  0  0  0  0  0  0  0  0  0  0
    2.7668    0.8629    0.1057 C   0  0  0  0  0  0  0  0  0  0  0  0
    2.5213   -0.4946    0.1975 C   0  0  0  0  0  0  0  0  0  0  0  0
   -1.1081   -0.5867   -0.3860 N   0  0  0  0  0  0  0  0  0  0  0  0
   -2.1588    0.1369    0.0487 C   0  0  0  0  0  0  0  0  0  0  0  0
   -1.9825    1.2479    0.5103 O   0  0  0  0  0  0  0  0  0  0  0  0
   -3.4048   -0.3710   -0.0282 N   0  0  0  0  0  0  0  0  0  0  0  0
    0.9701   -2.4576    0.1409 C   0  0  0  0  0  0  0  0  0  0  0  0
   -0.3669    1.9494   -0.5105 H   0  0  0  0  0  0  0  0  0  0  0  0
    1.9236    2.8007   -0.2190 H   0  0  0  0  0  0  0  0  0  0  0  0
    3.7714    1.2387    0.2327 H   0  0  0  0  0  0  0  0  0  0  0  0
    3.3341   -1.1775    0.3958 H   0  0  0  0  0  0  0  0  0  0  0  0
   -1.2541   -1.4450   -0.8137 H   0  0  0  0  0  0  0  0  0  0  0  0
   -3.5454   -1.2573   -0.3964 H   0  0  0  0  0  0  0  0  0  0  0  0
   -4.1610    0.1498    0.2847 H   0  0  0  0  0  0  0  0  0  0  0  0
    1.0671   -2.9158   -0.8433 H   0  0  0  0  0  0  0  0  0  0  0  0
    1.6894   -2.9090    0.8243 H   0  0  0  0  0  0  0  0  0  0  0  0
   -0.0398   -2.6180    0.5184 H   0  0  0  0  0  0  0  0  0  0  0  0
  1  2  2  0  0  0  0
  2  3  1  0  0  0  0
  3  4  2  0  0  0  0
  4  5  1  0  0  0  0
  5  6  2  0  0  0  0
  1  6  1  0  0  0  0
  2  7  1  0  0  0  0
  7  8  1  0  0  0  0
  8  9  2  0  0  0  0
  8 10  1  0  0  0  0
  1 11  1  0  0  0  0
  3 12  1  0  0  0  0
  4 13  1  0  0  0  0
  5 14  1  0  0  0  0
  6 15  1  0  0  0  0
  7 16  1  0  0  0  0
 10 17  1  0  0  0  0
 10 18  1  0  0  0  0
 11 19  1  0  0  0  0
 11 20  1  0  0  0  0
 11 21  1  0  0  0  0
M  END
$$$$
