C11H26N6O
APtclcactv12111704483D 0   0.00000     0.00000
 
 44 45  0  0  0  0  0  0  0  0999 V2000
    2.2220   -1.0163   -0.6885 O   0  0  0  0  0  0  0  0  0  0  0  0
    1.9601   -0.5492    0.6376 C   0  0  0  0  0  0  0  0  0  0  0  0
    2.7877    0.7114    0.9017 C   0  0  0  0  0  0  0  0  0  0  0  0
    4.2109    0.4107    0.6884 N   0  0  0  0  0  0  0  0  0  0  0  0
    4.4427   -0.0665   -0.6827 C   0  0  0  0  0  0  0  0  0  0  0  0
    3.5985   -1.3193   -0.9309 C   0  0  0  0  0  0  0  0  0  0  0  0
    0.5315   -0.2357    0.7741 N   0  0  0  0  0  0  0  0  0  0  0  0
   -0.2989   -1.3914    0.4067 C   0  0  0  0  0  0  0  0  0  0  0  0
   -1.7155   -1.0563    0.6099 N   0  0  0  0  0  0  0  0  0  0  0  0
   -2.0961    0.1141   -0.1937 C   0  0  0  0  0  0  0  0  0  0  0  0
   -1.2491    1.2559    0.1792 N   0  0  0  0  0  0  0  0  0  0  0  0
    0.1718    0.9423   -0.0280 C   0  0  0  0  0  0  0  0  0  0  0  0
   -1.6317    2.4505   -0.5561 N   0  0  0  0  0  0  0  0  0  0  0  0
   -3.0531    2.7610   -0.3532 C   0  0  0  0  0  0  0  0  0  0  0  0
   -0.7851    3.5918   -0.1834 C   0  0  0  0  0  0  0  0  0  0  0  0
   -2.5686   -2.1946    0.3092 N   0  0  0  0  0  0  0  0  0  0  0  0
   -3.9844   -1.8596    0.5122 C   0  0  0  0  0  0  0  0  0  0  0  0
   -2.3337   -2.6824   -1.0564 C   0  0  0  0  0  0  0  0  0  0  0  0
    2.2341   -1.3216    1.3562 H   0  0  0  0  0  0  0  0  0  0  0  0
    2.4762    1.5011    0.2180 H   0  0  0  0  0  0  0  0  0  0  0  0
    2.6349    1.0383    1.9302 H   0  0  0  0  0  0  0  0  0  0  0  0
    4.7850    1.2147    0.8934 H   0  0  0  0  0  0  0  0  0  0  0  0
    4.1576    0.7108   -1.3917 H   0  0  0  0  0  0  0  0  0  0  0  0
    5.4980   -0.3074   -0.8107 H   0  0  0  0  0  0  0  0  0  0  0  0
    3.9201   -2.1141   -0.2578 H   0  0  0  0  0  0  0  0  0  0  0  0
    3.7234   -1.6436   -1.9640 H   0  0  0  0  0  0  0  0  0  0  0  0
   -0.1309   -1.6419   -0.6407 H   0  0  0  0  0  0  0  0  0  0  0  0
   -0.0334   -2.2437    1.0322 H   0  0  0  0  0  0  0  0  0  0  0  0
   -1.9589   -0.1106   -1.2514 H   0  0  0  0  0  0  0  0  0  0  0  0
   -3.1414    0.3598   -0.0061 H   0  0  0  0  0  0  0  0  0  0  0  0
    0.7807    1.7922    0.2804 H   0  0  0  0  0  0  0  0  0  0  0  0
    0.3479    0.7318   -1.0829 H   0  0  0  0  0  0  0  0  0  0  0  0
   -3.2406    2.9284    0.7074 H   0  0  0  0  0  0  0  0  0  0  0  0
   -3.3125    3.6588   -0.9142 H   0  0  0  0  0  0  0  0  0  0  0  0
   -3.6607    1.9262   -0.7023 H   0  0  0  0  0  0  0  0  0  0  0  0
    0.2560    3.3609   -0.4091 H   0  0  0  0  0  0  0  0  0  0  0  0
   -1.0927    4.4720   -0.7480 H   0  0  0  0  0  0  0  0  0  0  0  0
   -0.8905    3.7893    0.8833 H   0  0  0  0  0  0  0  0  0  0  0  0
   -4.2600   -1.0335   -0.1434 H   0  0  0  0  0  0  0  0  0  0  0  0
   -4.6003   -2.7285    0.2802 H   0  0  0  0  0  0  0  0  0  0  0  0
   -4.1436   -1.5682    1.5504 H   0  0  0  0  0  0  0  0  0  0  0  0
   -1.2927   -2.9891   -1.1586 H   0  0  0  0  0  0  0  0  0  0  0  0
   -2.9845   -3.5338   -1.2551 H   0  0  0  0  0  0  0  0  0  0  0  0
   -2.5494   -1.8861   -1.7688 H   0  0  0  0  0  0  0  0  0  0  0  0
  1  2  1  0  0  0  0
  2  3  1  0  0  0  0
  3  4  1  0  0  0  0
  4  5  1  0  0  0  0
  5  6  1  0  0  0  0
  1  6  1  0  0  0  0
  2  7  1  0  0  0  0
  7  8  1  0  0  0  0
  8  9  1  0  0  0  0
  9 10  1  0  0  0  0
 10 11  1  0  0  0  0
 11 12  1  0  0  0  0
  7 12  1  0  0  0  0
 11 13  1  0  0  0  0
 13 14  1  0  0  0  0
 13 15  1  0  0  0  0
  9 16  1  0  0  0  0
 16 17  1  0  0  0  0
 16 18  1  0  0  0  0
  2 19  1  0  0  0  0
  3 20  1  0  0  0  0
  3 21  1  0  0  0  0
  4 22  1  0  0  0  0
  5 23  1  0  0  0  0
  5 24  1  0  0  0  0
  6 25  1  0  0  0  0
  6 26  1  0  0  0  0
  8 27  1  0  0  0  0
  8 28  1  0  0  0  0
 10 29  1  0  0  0  0
 10 30  1  0  0  0  0
 12 31  1  0  0  0  0
 12 32  1  0  0  0  0
 14 33  1  0  0  0  0
 14 34  1  0  0  0  0
 14 35  1  0  0  0  0
 15 36  1  0  0  0  0
 15 37  1  0  0  0  0
 15 38  1  0  0  0  0
 17 39  1  0  0  0  0
 17 40  1  0  0  0  0
 17 41  1  0  0  0  0
 18 42  1  0  0  0  0
 18 43  1  0  0  0  0
 18 44  1  0  0  0  0
M  END
$$$$
