C10H24N6O2
APtclcactv12211717283D 0   0.00000     0.00000
 
 42 42  0  0  0  0  0  0  0  0999 V2000
    1.7471    1.3399    0.7154 N   0  0  0  0  0  0  0  0  0  0  0  0
    1.4099    1.7347    2.0896 C   0  0  0  0  0  0  0  0  0  0  0  0
    2.9464    0.4919    0.6904 C   0  0  0  0  0  0  0  0  0  0  0  0
    3.3885    0.2889   -0.7359 C   0  0  0  0  0  0  0  0  0  0  0  0
    2.7683    0.7984   -1.6390 O   0  0  0  0  0  0  0  0  0  0  0  0
    4.4714   -0.4579   -1.0030 O   0  0  0  0  0  0  0  0  0  0  0  0
    0.6247    0.6742    0.0742 N   0  0  0  0  0  0  0  0  0  0  0  0
   -0.5752    1.5227    0.0992 C   0  0  0  0  0  0  0  0  0  0  0  0
   -1.6686    0.8389   -0.6060 N   0  0  0  0  0  0  0  0  0  0  0  0
   -1.9577   -0.4619    0.0142 C   0  0  0  0  0  0  0  0  0  0  0  0
   -0.7450   -1.2920   -0.0100 N   0  0  0  0  0  0  0  0  0  0  0  0
    0.3570   -0.6282    0.7007 C   0  0  0  0  0  0  0  0  0  0  0  0
   -1.0047   -2.6101    0.5462 N   0  0  0  0  0  0  0  0  0  0  0  0
   -2.1096   -3.2715   -0.1608 C   0  0  0  0  0  0  0  0  0  0  0  0
    0.2073   -3.4398    0.5220 C   0  0  0  0  0  0  0  0  0  0  0  0
   -2.8602    1.6710   -0.6512 N   0  0  0  0  0  0  0  0  0  0  0  0
   -3.9530    0.9876   -1.3560 C   0  0  0  0  0  0  0  0  0  0  0  0
   -3.2743    2.0712    0.7002 C   0  0  0  0  0  0  0  0  0  0  0  0
    2.2411    2.2919    2.5218 H   0  0  0  0  0  0  0  0  0  0  0  0
    0.5185    2.3618    2.0791 H   0  0  0  0  0  0  0  0  0  0  0  0
    1.2201    0.8433    2.6875 H   0  0  0  0  0  0  0  0  0  0  0  0
    3.7450    0.9754    1.2531 H   0  0  0  0  0  0  0  0  0  0  0  0
    2.7178   -0.4740    1.1409 H   0  0  0  0  0  0  0  0  0  0  0  0
    4.7162   -0.5594   -1.9330 H   0  0  0  0  0  0  0  0  0  0  0  0
   -0.8684    1.7079    1.1325 H   0  0  0  0  0  0  0  0  0  0  0  0
   -0.3607    2.4707   -0.3942 H   0  0  0  0  0  0  0  0  0  0  0  0
   -2.2746   -0.3106    1.0461 H   0  0  0  0  0  0  0  0  0  0  0  0
   -2.7516   -0.9613   -0.5412 H   0  0  0  0  0  0  0  0  0  0  0  0
    1.2514   -1.2489    0.6461 H   0  0  0  0  0  0  0  0  0  0  0  0
    0.0798   -0.4798    1.7444 H   0  0  0  0  0  0  0  0  0  0  0  0
   -1.8528   -3.3811   -1.2144 H   0  0  0  0  0  0  0  0  0  0  0  0
   -2.2827   -4.2554    0.2753 H   0  0  0  0  0  0  0  0  0  0  0  0
   -3.0130   -2.6687   -0.0678 H   0  0  0  0  0  0  0  0  0  0  0  0
    0.9883   -2.9594    1.1115 H   0  0  0  0  0  0  0  0  0  0  0  0
   -0.0149   -4.4201    0.9436 H   0  0  0  0  0  0  0  0  0  0  0  0
    0.5480   -3.5555   -0.5069 H   0  0  0  0  0  0  0  0  0  0  0  0
   -4.1945    0.0591   -0.8386 H   0  0  0  0  0  0  0  0  0  0  0  0
   -4.8319    1.6320   -1.3752 H   0  0  0  0  0  0  0  0  0  0  0  0
   -3.6435    0.7646   -2.3770 H   0  0  0  0  0  0  0  0  0  0  0  0
   -2.4714    2.6361    1.1739 H   0  0  0  0  0  0  0  0  0  0  0  0
   -4.1676    2.6926    0.6373 H   0  0  0  0  0  0  0  0  0  0  0  0
   -3.4912    1.1820    1.2921 H   0  0  0  0  0  0  0  0  0  0  0  0
  1  2  1  0  0  0  0
  1  3  1  0  0  0  0
  3  4  1  0  0  0  0
  4  5  2  0  0  0  0
  4  6  1  0  0  0  0
  1  7  1  0  0  0  0
  7  8  1  0  0  0  0
  8  9  1  0  0  0  0
  9 10  1  0  0  0  0
 10 11  1  0  0  0  0
 11 12  1  0  0  0  0
  7 12  1  0  0  0  0
 11 13  1  0  0  0  0
 13 14  1  0  0  0  0
 13 15  1  0  0  0  0
  9 16  1  0  0  0  0
 16 17  1  0  0  0  0
 16 18  1  0  0  0  0
  2 19  1  0  0  0  0
  2 20  1  0  0  0  0
  2 21  1  0  0  0  0
  3 22  1  0  0  0  0
  3 23  1  0  0  0  0
  6 24  1  0  0  0  0
  8 25  1  0  0  0  0
  8 26  1  0  0  0  0
 10 27  1  0  0  0  0
 10 28  1  0  0  0  0
 12 29  1  0  0  0  0
 12 30  1  0  0  0  0
 14 31  1  0  0  0  0
 14 32  1  0  0  0  0
 14 33  1  0  0  0  0
 15 34  1  0  0  0  0
 15 35  1  0  0  0  0
 15 36  1  0  0  0  0
 17 37  1  0  0  0  0
 17 38  1  0  0  0  0
 17 39  1  0  0  0  0
 18 40  1  0  0  0  0
 18 41  1  0  0  0  0
 18 42  1  0  0  0  0
M  END
$$$$
