C11H26N6S
APtclcactv12111704483D 0   0.00000     0.00000
 
 44 45  0  0  0  0  0  0  0  0999 V2000
    2.1815   -1.0528   -0.8657 S   0  0  0  0  0  0  0  0  0  0  0  0
    1.7748   -0.4102    0.7866 C   0  0  0  0  0  0  0  0  0  0  0  0
    2.5578    0.8882    1.0099 C   0  0  0  0  0  0  0  0  0  0  0  0
    3.9962    0.6151    0.9689 N   0  0  0  0  0  0  0  0  0  0  0  0
    4.4768    0.3360   -0.3863 C   0  0  0  0  0  0  0  0  0  0  0  0
    4.0002   -1.0505   -0.8324 C   0  0  0  0  0  0  0  0  0  0  0  0
    0.3337   -0.1379    0.8693 N   0  0  0  0  0  0  0  0  0  0  0  0
   -0.4489   -1.3319    0.5199 C   0  0  0  0  0  0  0  0  0  0  0  0
   -1.8807   -1.0353    0.6688 N   0  0  0  0  0  0  0  0  0  0  0  0
   -2.2726    0.0931   -0.1877 C   0  0  0  0  0  0  0  0  0  0  0  0
   -1.4731    1.2740    0.1683 N   0  0  0  0  0  0  0  0  0  0  0  0
   -0.0375    0.9989    0.0147 C   0  0  0  0  0  0  0  0  0  0  0  0
   -1.8697    2.4290   -0.6209 N   0  0  0  0  0  0  0  0  0  0  0  0
   -3.3056    2.7008   -0.4715 C   0  0  0  0  0  0  0  0  0  0  0  0
   -1.0707    3.6092   -0.2651 C   0  0  0  0  0  0  0  0  0  0  0  0
   -2.6886   -2.2103    0.3845 N   0  0  0  0  0  0  0  0  0  0  0  0
   -4.1197   -1.9138    0.5334 C   0  0  0  0  0  0  0  0  0  0  0  0
   -2.3969   -2.7383   -0.9549 C   0  0  0  0  0  0  0  0  0  0  0  0
    2.0561   -1.1422    1.5437 H   0  0  0  0  0  0  0  0  0  0  0  0
    2.3026    1.6039    0.2284 H   0  0  0  0  0  0  0  0  0  0  0  0
    2.2961    1.3064    1.9818 H   0  0  0  0  0  0  0  0  0  0  0  0
    4.5193    1.3681    1.3901 H   0  0  0  0  0  0  0  0  0  0  0  0
    4.0883    1.0901   -1.0708 H   0  0  0  0  0  0  0  0  0  0  0  0
    5.5663    0.3654   -0.3974 H   0  0  0  0  0  0  0  0  0  0  0  0
    4.3545   -1.8035   -0.1285 H   0  0  0  0  0  0  0  0  0  0  0  0
    4.3850   -1.2668   -1.8290 H   0  0  0  0  0  0  0  0  0  0  0  0
   -0.2412   -1.6138   -0.5124 H   0  0  0  0  0  0  0  0  0  0  0  0
   -0.1764   -2.1526    1.1835 H   0  0  0  0  0  0  0  0  0  0  0  0
   -2.0960   -0.1644   -1.2320 H   0  0  0  0  0  0  0  0  0  0  0  0
   -3.3302    0.3118   -0.0402 H   0  0  0  0  0  0  0  0  0  0  0  0
    0.5351    1.8782    0.3099 H   0  0  0  0  0  0  0  0  0  0  0  0
    0.1773    0.7569   -1.0261 H   0  0  0  0  0  0  0  0  0  0  0  0
   -3.5306    2.8995    0.5764 H   0  0  0  0  0  0  0  0  0  0  0  0
   -3.5754    3.5694   -1.0721 H   0  0  0  0  0  0  0  0  0  0  0  0
   -3.8762    1.8351   -0.8078 H   0  0  0  0  0  0  0  0  0  0  0  0
   -0.0165    3.4039   -0.4513 H   0  0  0  0  0  0  0  0  0  0  0  0
   -1.3879    4.4586   -0.8701 H   0  0  0  0  0  0  0  0  0  0  0  0
   -1.2148    3.8408    0.7902 H   0  0  0  0  0  0  0  0  0  0  0  0
   -4.4004   -1.1207   -0.1596 H   0  0  0  0  0  0  0  0  0  0  0  0
   -4.7009   -2.8097    0.3150 H   0  0  0  0  0  0  0  0  0  0  0  0
   -4.3195   -1.5911    1.5551 H   0  0  0  0  0  0  0  0  0  0  0  0
   -1.3443   -3.0150   -1.0151 H   0  0  0  0  0  0  0  0  0  0  0  0
   -3.0147   -3.6167   -1.1417 H   0  0  0  0  0  0  0  0  0  0  0  0
   -2.6152   -1.9750   -1.7018 H   0  0  0  0  0  0  0  0  0  0  0  0
  1  2  1  0  0  0  0
  2  3  1  0  0  0  0
  3  4  1  0  0  0  0
  4  5  1  0  0  0  0
  5  6  1  0  0  0  0
  1  6  1  0  0  0  0
  2  7  1  0  0  0  0
  7  8  1  0  0  0  0
  8  9  1  0  0  0  0
  9 10  1  0  0  0  0
 10 11  1  0  0  0  0
 11 12  1  0  0  0  0
  7 12  1  0  0  0  0
 11 13  1  0  0  0  0
 13 14  1  0  0  0  0
 13 15  1  0  0  0  0
  9 16  1  0  0  0  0
 16 17  1  0  0  0  0
 16 18  1  0  0  0  0
  2 19  1  0  0  0  0
  3 20  1  0  0  0  0
  3 21  1  0  0  0  0
  4 22  1  0  0  0  0
  5 23  1  0  0  0  0
  5 24  1  0  0  0  0
  6 25  1  0  0  0  0
  6 26  1  0  0  0  0
  8 27  1  0  0  0  0
  8 28  1  0  0  0  0
 10 29  1  0  0  0  0
 10 30  1  0  0  0  0
 12 31  1  0  0  0  0
 12 32  1  0  0  0  0
 14 33  1  0  0  0  0
 14 34  1  0  0  0  0
 14 35  1  0  0  0  0
 15 36  1  0  0  0  0
 15 37  1  0  0  0  0
 15 38  1  0  0  0  0
 17 39  1  0  0  0  0
 17 40  1  0  0  0  0
 17 41  1  0  0  0  0
 18 42  1  0  0  0  0
 18 43  1  0  0  0  0
 18 44  1  0  0  0  0
M  END
$$$$
