C17H16N2O3
APtclcactv12211717363D 0   0.00000     0.00000
 
 38 40  0  0  0  0  0  0  0  0999 V2000
    4.8428    2.0253    0.8914 O   0  0  0  0  0  0  0  0  0  0  0  0
    5.0082    1.2030   -0.2656 C   0  0  0  0  0  0  0  0  0  0  0  0
    4.0982   -0.0220   -0.1550 C   0  0  0  0  0  0  0  0  0  0  0  0
    2.6974    0.4064   -0.1810 N   0  0  0  0  0  0  0  0  0  0  0  0
    1.6830   -0.5347   -0.0937 C   0  0  0  0  0  0  0  0  0  0  0  0
    1.9938   -1.8889    0.0640 C   0  0  0  0  0  0  0  0  0  0  0  0
    1.0048   -2.8246    0.1509 C   0  0  0  0  0  0  0  0  0  0  0  0
   -0.3405   -2.4491    0.0844 C   0  0  0  0  0  0  0  0  0  0  0  0
   -0.6777   -1.1018   -0.0724 C   0  0  0  0  0  0  0  0  0  0  0  0
   -2.0872   -0.6828   -0.1439 C   0  0  0  0  0  0  0  0  0  0  0  0
   -2.4215    0.7515   -0.0051 C   0  0  0  0  0  0  0  0  0  0  0  0
   -3.7341    1.1544    0.2161 C   0  0  0  0  0  0  0  0  0  0  0  0
   -4.0283    2.5008    0.3429 C   0  0  0  0  0  0  0  0  0  0  0  0
   -3.0260    3.4493    0.2510 C   0  0  0  0  0  0  0  0  0  0  0  0
   -1.7146    3.0656    0.0312 C   0  0  0  0  0  0  0  0  0  0  0  0
   -1.4014    1.7166   -0.0973 C   0  0  0  0  0  0  0  0  0  0  0  0
   -0.0052    1.2865   -0.3297 C   0  0  0  0  0  0  0  0  0  0  0  0
    0.3459   -0.1327   -0.1573 C   0  0  0  0  0  0  0  0  0  0  0  0
    0.8420    2.0960   -0.6554 O   0  0  0  0  0  0  0  0  0  0  0  0
   -2.9660   -1.5058   -0.3154 O   0  0  0  0  0  0  0  0  0  0  0  0
   -1.3362   -3.4099    0.1732 N   0  0  0  0  0  0  0  0  0  0  0  0
   -0.9829   -4.8315    0.1906 C   0  0  0  0  0  0  0  0  0  0  0  0
    5.3907    2.8221    0.8892 H   0  0  0  0  0  0  0  0  0  0  0  0
    4.7443    1.7724   -1.1568 H   0  0  0  0  0  0  0  0  0  0  0  0
    6.0466    0.8791   -0.3356 H   0  0  0  0  0  0  0  0  0  0  0  0
    4.2886   -0.6929   -0.9927 H   0  0  0  0  0  0  0  0  0  0  0  0
    4.3017   -0.5424    0.7809 H   0  0  0  0  0  0  0  0  0  0  0  0
    2.4797    1.3484   -0.2593 H   0  0  0  0  0  0  0  0  0  0  0  0
    3.0274   -2.1974    0.1171 H   0  0  0  0  0  0  0  0  0  0  0  0
    1.2636   -3.8661    0.2721 H   0  0  0  0  0  0  0  0  0  0  0  0
   -4.5216    0.4188    0.2884 H   0  0  0  0  0  0  0  0  0  0  0  0
   -5.0478    2.8130    0.5144 H   0  0  0  0  0  0  0  0  0  0  0  0
   -3.2685    4.4970    0.3511 H   0  0  0  0  0  0  0  0  0  0  0  0
   -0.9367    3.8114   -0.0397 H   0  0  0  0  0  0  0  0  0  0  0  0
   -2.2668   -3.1407    0.2238 H   0  0  0  0  0  0  0  0  0  0  0  0
   -0.4531   -5.0855   -0.7274 H   0  0  0  0  0  0  0  0  0  0  0  0
   -0.3423   -5.0362    1.0484 H   0  0  0  0  0  0  0  0  0  0  0  0
   -1.8906   -5.4306    0.2639 H   0  0  0  0  0  0  0  0  0  0  0  0
  1  2  1  0  0  0  0
  2  3  1  0  0  0  0
  3  4  1  0  0  0  0
  4  5  1  0  0  0  0
  5  6  2  0  0  0  0
  6  7  1  0  0  0  0
  7  8  2  0  0  0  0
  8  9  1  0  0  0  0
  9 10  1  0  0  0  0
 10 11  1  0  0  0  0
 11 12  2  0  0  0  0
 12 13  1  0  0  0  0
 13 14  2  0  0  0  0
 14 15  1  0  0  0  0
 15 16  2  0  0  0  0
 11 16  1  0  0  0  0
 16 17  1  0  0  0  0
 17 18  1  0  0  0  0
  5 18  1  0  0  0  0
  9 18  2  0  0  0  0
 17 19  2  0  0  0  0
 10 20  2  0  0  0  0
  8 21  1  0  0  0  0
 21 22  1  0  0  0  0
  1 23  1  0  0  0  0
  2 24  1  0  0  0  0
  2 25  1  0  0  0  0
  3 26  1  0  0  0  0
  3 27  1  0  0  0  0
  4 28  1  0  0  0  0
  6 29  1  0  0  0  0
  7 30  1  0  0  0  0
 12 31  1  0  0  0  0
 13 32  1  0  0  0  0
 14 33  1  0  0  0  0
 15 34  1  0  0  0  0
 21 35  1  0  0  0  0
 22 36  1  0  0  0  0
 22 37  1  0  0  0  0
 22 38  1  0  0  0  0
M  END
$$$$
