C7H7FN2O4
APtclcactv12151716173D 0   0.00000     0.00000
 
 21 21  0  0  0  0  0  0  0  0999 V2000
    2.8251    0.4374   -0.1863 C   0  0  0  0  0  0  0  0  0  0  0  0
    3.8306    0.8613   -1.2257 C   0  0  0  0  0  0  0  0  0  0  0  0
    2.4406    1.2298    0.6408 O   0  0  0  0  0  0  0  0  0  0  0  0
    2.3525   -0.8190   -0.1828 O   0  0  0  0  0  0  0  0  0  0  0  0
    1.3867   -1.1571    0.8473 C   0  0  0  0  0  0  0  0  0  0  0  0
    0.0626   -0.6686    0.4544 N   0  0  0  0  0  0  0  0  0  0  0  0
   -0.8650   -1.5381    0.0144 C   0  0  0  0  0  0  0  0  0  0  0  0
   -2.0894   -1.1172   -0.3531 N   0  0  0  0  0  0  0  0  0  0  0  0
   -2.4078    0.1912   -0.2851 C   0  0  0  0  0  0  0  0  0  0  0  0
   -1.4412    1.1193    0.1769 C   0  0  0  0  0  0  0  0  0  0  0  0
   -0.2217    0.6694    0.5438 C   0  0  0  0  0  0  0  0  0  0  0  0
   -1.7371    2.4353    0.2531 F   0  0  0  0  0  0  0  0  0  0  0  0
   -3.5156    0.5722   -0.6180 O   0  0  0  0  0  0  0  0  0  0  0  0
   -0.5931   -2.7214   -0.0526 O   0  0  0  0  0  0  0  0  0  0  0  0
    4.8383    0.6820   -0.8508 H   0  0  0  0  0  0  0  0  0  0  0  0
    3.6746    0.2858   -2.1381 H   0  0  0  0  0  0  0  0  0  0  0  0
    3.7062    1.9228   -1.4399 H   0  0  0  0  0  0  0  0  0  0  0  0
    1.3524   -2.2394    0.9721 H   0  0  0  0  0  0  0  0  0  0  0  0
    1.6811   -0.6920    1.7881 H   0  0  0  0  0  0  0  0  0  0  0  0
   -2.7457   -1.7581   -0.6685 H   0  0  0  0  0  0  0  0  0  0  0  0
    0.5280    1.3611    0.8984 H   0  0  0  0  0  0  0  0  0  0  0  0
  1  2  1  0  0  0  0
  1  3  2  0  0  0  0
  1  4  1  0  0  0  0
  4  5  1  0  0  0  0
  5  6  1  0  0  0  0
  6  7  1  0  0  0  0
  7  8  1  0  0  0  0
  8  9  1  0  0  0  0
  9 10  1  0  0  0  0
 10 11  2  0  0  0  0
  6 11  1  0  0  0  0
 10 12  1  0  0  0  0
  9 13  2  0  0  0  0
  7 14  2  0  0  0  0
  2 15  1  0  0  0  0
  2 16  1  0  0  0  0
  2 17  1  0  0  0  0
  5 18  1  0  0  0  0
  5 19  1  0  0  0  0
  8 20  1  0  0  0  0
 11 21  1  0  0  0  0
M  END
$$$$
