C14H9NO2
APtclcactv12091702563D 0   0.00000     0.00000
 
 26 28  0  0  0  0  0  0  0  0999 V2000
    2.6797    2.2219    0.0830 N   0  0  0  0  0  0  0  0  0  0  0  0
    2.4635    0.8527    0.0915 C   0  0  0  0  0  0  0  0  0  0  0  0
    3.5371   -0.0269    0.2379 C   0  0  0  0  0  0  0  0  0  0  0  0
    3.3258   -1.3890    0.2465 C   0  0  0  0  0  0  0  0  0  0  0  0
    2.0459   -1.9065    0.1110 C   0  0  0  0  0  0  0  0  0  0  0  0
    0.9617   -1.0502   -0.0353 C   0  0  0  0  0  0  0  0  0  0  0  0
   -0.4083   -1.5886   -0.1790 C   0  0  0  0  0  0  0  0  0  0  0  0
   -1.5614   -0.6747   -0.0273 C   0  0  0  0  0  0  0  0  0  0  0  0
   -2.8484   -1.1783    0.1286 C   0  0  0  0  0  0  0  0  0  0  0  0
   -3.9156   -0.3075    0.2685 C   0  0  0  0  0  0  0  0  0  0  0  0
   -3.7111    1.0598    0.2539 C   0  0  0  0  0  0  0  0  0  0  0  0
   -2.4361    1.5776    0.1006 C   0  0  0  0  0  0  0  0  0  0  0  0
   -1.3532    0.7171   -0.0404 C   0  0  0  0  0  0  0  0  0  0  0  0
    0.0172    1.2514   -0.2027 C   0  0  0  0  0  0  0  0  0  0  0  0
    1.1667    0.3437   -0.0409 C   0  0  0  0  0  0  0  0  0  0  0  0
    0.1922    2.4261   -0.4625 O   0  0  0  0  0  0  0  0  0  0  0  0
   -0.5844   -2.7667   -0.4190 O   0  0  0  0  0  0  0  0  0  0  0  0
    3.5702    2.5713   -0.0778 H   0  0  0  0  0  0  0  0  0  0  0  0
    1.9398    2.8307    0.2340 H   0  0  0  0  0  0  0  0  0  0  0  0
    4.5390    0.3617    0.3446 H   0  0  0  0  0  0  0  0  0  0  0  0
    4.1647   -2.0597    0.3595 H   0  0  0  0  0  0  0  0  0  0  0  0
    1.8922   -2.9754    0.1189 H   0  0  0  0  0  0  0  0  0  0  0  0
   -3.0148   -2.2453    0.1400 H   0  0  0  0  0  0  0  0  0  0  0  0
   -4.9148   -0.6990    0.3897 H   0  0  0  0  0  0  0  0  0  0  0  0
   -4.5519    1.7289    0.3631 H   0  0  0  0  0  0  0  0  0  0  0  0
   -2.2833    2.6466    0.0899 H   0  0  0  0  0  0  0  0  0  0  0  0
  1  2  1  0  0  0  0
  2  3  2  0  0  0  0
  3  4  1  0  0  0  0
  4  5  2  0  0  0  0
  5  6  1  0  0  0  0
  6  7  1  0  0  0  0
  7  8  1  0  0  0  0
  8  9  2  0  0  0  0
  9 10  1  0  0  0  0
 10 11  2  0  0  0  0
 11 12  1  0  0  0  0
 12 13  2  0  0  0  0
  8 13  1  0  0  0  0
 13 14  1  0  0  0  0
 14 15  1  0  0  0  0
  2 15  1  0  0  0  0
  6 15  2  0  0  0  0
 14 16  2  0  0  0  0
  7 17  2  0  0  0  0
  1 18  1  0  0  0  0
  1 19  1  0  0  0  0
  3 20  1  0  0  0  0
  4 21  1  0  0  0  0
  5 22  1  0  0  0  0
  9 23  1  0  0  0  0
 10 24  1  0  0  0  0
 11 25  1  0  0  0  0
 12 26  1  0  0  0  0
M  END
$$$$
