C17H16N2O4S
APtclcactv12211717363D 0   0.00000     0.00000
 
 40 42  0  0  0  0  0  0  0  0999 V2000
    2.4688   -0.5382   -0.2435 C   0  0  0  0  0  0  0  0  0  0  0  0
    2.6118   -1.3727    0.8492 C   0  0  0  0  0  0  0  0  0  0  0  0
    3.8164   -1.4261    1.5251 C   0  0  0  0  0  0  0  0  0  0  0  0
    4.8782   -0.6453    1.1080 C   0  0  0  0  0  0  0  0  0  0  0  0
    4.7354    0.1885    0.0148 C   0  0  0  0  0  0  0  0  0  0  0  0
    3.5303    0.2430   -0.6603 C   0  0  0  0  0  0  0  0  0  0  0  0
    0.9355   -0.4756   -1.1096 S   0  0  0  0  0  0  0  0  0  0  0  0
    1.2338   -0.0163   -2.4208 O   0  0  0  0  0  0  0  0  0  0  0  0
    0.2767   -1.7073   -0.8486 O   0  0  0  0  0  0  0  0  0  0  0  0
    0.0183    0.7052   -0.3977 N   0  0  0  0  0  0  0  0  0  0  0  0
    0.0715    2.0256   -0.6497 C   0  0  0  0  0  0  0  0  0  0  0  0
    0.8262    2.5292   -1.4584 O   0  0  0  0  0  0  0  0  0  0  0  0
   -0.7993    2.7224    0.0893 N   0  0  0  0  0  0  0  0  0  0  0  0
   -1.5134    1.9206    0.9038 C   0  0  0  0  0  0  0  0  0  0  0  0
   -2.3752    2.2544    1.6885 O   0  0  0  0  0  0  0  0  0  0  0  0
   -1.0193    0.5139    0.6302 C   0  0  0  0  0  0  0  0  0  0  0  0
   -2.1392   -0.3494    0.1089 C   0  0  0  0  0  0  0  0  0  0  0  0
   -2.1886   -1.6909    0.4386 C   0  0  0  0  0  0  0  0  0  0  0  0
   -3.2158   -2.4828   -0.0396 C   0  0  0  0  0  0  0  0  0  0  0  0
   -4.1939   -1.9330   -0.8471 C   0  0  0  0  0  0  0  0  0  0  0  0
   -4.1450   -0.5912   -1.1760 C   0  0  0  0  0  0  0  0  0  0  0  0
   -3.1201    0.2016   -0.6943 C   0  0  0  0  0  0  0  0  0  0  0  0
   -0.4095   -0.0977    1.8932 C   0  0  0  0  0  0  0  0  0  0  0  0
   -1.4647   -0.1392    3.0003 C   0  0  0  0  0  0  0  0  0  0  0  0
    1.7823   -1.9827    1.1750 H   0  0  0  0  0  0  0  0  0  0  0  0
    3.9280   -2.0776    2.3792 H   0  0  0  0  0  0  0  0  0  0  0  0
    5.8191   -0.6865    1.6366 H   0  0  0  0  0  0  0  0  0  0  0  0
    5.5647    0.7991   -0.3106 H   0  0  0  0  0  0  0  0  0  0  0  0
    3.4187    0.8947   -1.5142 H   0  0  0  0  0  0  0  0  0  0  0  0
   -0.9034    3.6858    0.0448 H   0  0  0  0  0  0  0  0  0  0  0  0
   -1.4245   -2.1205    1.0695 H   0  0  0  0  0  0  0  0  0  0  0  0
   -3.2541   -3.5311    0.2174 H   0  0  0  0  0  0  0  0  0  0  0  0
   -4.9960   -2.5518   -1.2213 H   0  0  0  0  0  0  0  0  0  0  0  0
   -4.9089   -0.1617   -1.8072 H   0  0  0  0  0  0  0  0  0  0  0  0
   -3.0819    1.2499   -0.9512 H   0  0  0  0  0  0  0  0  0  0  0  0
   -0.0683   -1.1103    1.6782 H   0  0  0  0  0  0  0  0  0  0  0  0
    0.4354    0.5090    2.2191 H   0  0  0  0  0  0  0  0  0  0  0  0
   -2.3531   -0.6554    2.6364 H   0  0  0  0  0  0  0  0  0  0  0  0
   -1.0643   -0.6701    3.8640 H   0  0  0  0  0  0  0  0  0  0  0  0
   -1.7283    0.8781    3.2894 H   0  0  0  0  0  0  0  0  0  0  0  0
  1  2  2  0  0  0  0
  2  3  1  0  0  0  0
  3  4  2  0  0  0  0
  4  5  1  0  0  0  0
  5  6  2  0  0  0  0
  1  6  1  0  0  0  0
  1  7  1  0  0  0  0
  7  8  2  0  0  0  0
  7  9  2  0  0  0  0
  7 10  1  0  0  0  0
 10 11  1  0  0  0  0
 11 12  2  0  0  0  0
 11 13  1  0  0  0  0
 13 14  1  0  0  0  0
 14 15  2  0  0  0  0
 14 16  1  0  0  0  0
 10 16  1  0  0  0  0
 16 17  1  0  0  0  0
 17 18  2  0  0  0  0
 18 19  1  0  0  0  0
 19 20  2  0  0  0  0
 20 21  1  0  0  0  0
 21 22  2  0  0  0  0
 17 22  1  0  0  0  0
 16 23  1  0  0  0  0
 23 24  1  0  0  0  0
  2 25  1  0  0  0  0
  3 26  1  0  0  0  0
  4 27  1  0  0  0  0
  5 28  1  0  0  0  0
  6 29  1  0  0  0  0
 13 30  1  0  0  0  0
 18 31  1  0  0  0  0
 19 32  1  0  0  0  0
 20 33  1  0  0  0  0
 21 34  1  0  0  0  0
 22 35  1  0  0  0  0
 23 36  1  0  0  0  0
 23 37  1  0  0  0  0
 24 38  1  0  0  0  0
 24 39  1  0  0  0  0
 24 40  1  0  0  0  0
M  END
$$$$
