C6H13Br
APtclcactv12211716593D 0   0.00000     0.00000
 
 20 19  0  0  0  0  0  0  0  0999 V2000
   -2.4855    0.1505   -0.0000 Br  0  0  0  0  0  0  0  0  0  0  0  0
   -0.7905   -0.8456    0.0000 C   0  0  0  0  0  0  0  0  0  0  0  0
    0.3800    0.1396    0.0000 C   0  0  0  0  0  0  0  0  0  0  0  0
    1.6991   -0.6356   -0.0000 C   0  0  0  0  0  0  0  0  0  0  0  0
    2.8696    0.3496    0.0000 C   0  0  0  0  0  0  0  0  0  0  0  0
    4.1887   -0.4256   -0.0000 C   0  0  0  0  0  0  0  0  0  0  0  0
    5.3593    0.5597    0.0000 C   0  0  0  0  0  0  0  0  0  0  0  0
   -0.7376   -1.4727    0.8900 H   0  0  0  0  0  0  0  0  0  0  0  0
   -0.7376   -1.4727   -0.8900 H   0  0  0  0  0  0  0  0  0  0  0  0
    0.3271    0.7667   -0.8900 H   0  0  0  0  0  0  0  0  0  0  0  0
    0.3271    0.7667    0.8900 H   0  0  0  0  0  0  0  0  0  0  0  0
    1.7520   -1.2627    0.8900 H   0  0  0  0  0  0  0  0  0  0  0  0
    1.7520   -1.2627   -0.8900 H   0  0  0  0  0  0  0  0  0  0  0  0
    2.8167    0.9767   -0.8900 H   0  0  0  0  0  0  0  0  0  0  0  0
    2.8167    0.9767    0.8900 H   0  0  0  0  0  0  0  0  0  0  0  0
    4.2416   -1.0526    0.8900 H   0  0  0  0  0  0  0  0  0  0  0  0
    4.2416   -1.0526   -0.8900 H   0  0  0  0  0  0  0  0  0  0  0  0
    6.2990    0.0074   -0.0000 H   0  0  0  0  0  0  0  0  0  0  0  0
    5.3064    1.1868   -0.8900 H   0  0  0  0  0  0  0  0  0  0  0  0
    5.3064    1.1868    0.8900 H   0  0  0  0  0  0  0  0  0  0  0  0
  1  2  1  0  0  0  0
  2  3  1  0  0  0  0
  3  4  1  0  0  0  0
  4  5  1  0  0  0  0
  5  6  1  0  0  0  0
  6  7  1  0  0  0  0
  2  8  1  0  0  0  0
  2  9  1  0  0  0  0
  3 10  1  0  0  0  0
  3 11  1  0  0  0  0
  4 12  1  0  0  0  0
  4 13  1  0  0  0  0
  5 14  1  0  0  0  0
  5 15  1  0  0  0  0
  6 16  1  0  0  0  0
  6 17  1  0  0  0  0
  7 18  1  0  0  0  0
  7 19  1  0  0  0  0
  7 20  1  0  0  0  0
M  END
$$$$
