C11H16N4O2
APtclcactv12111704473D 0   0.00000     0.00000
 
 33 34  0  0  0  0  0  0  0  0999 V2000
   -2.0967    0.0902   -0.9078 C   0  0  0  0  0  0  0  0  0  0  0  0
   -2.9349    0.3157    0.3521 C   0  0  0  0  0  0  0  0  0  0  0  0
   -4.3876    0.5876   -0.0436 C   0  0  0  0  0  0  0  0  0  0  0  0
   -5.2258    0.8131    1.2163 C   0  0  0  0  0  0  0  0  0  0  0  0
   -0.7058   -0.1702   -0.5289 N   0  0  0  0  0  0  0  0  0  0  0  0
   -0.3061   -1.4339   -0.3049 C   0  0  0  0  0  0  0  0  0  0  0  0
   -1.1097   -2.3391   -0.4216 O   0  0  0  0  0  0  0  0  0  0  0  0
    0.9615   -1.7228    0.0450 N   0  0  0  0  0  0  0  0  0  0  0  0
    1.3563   -3.1139    0.2801 C   0  0  0  0  0  0  0  0  0  0  0  0
    1.8932   -0.7067    0.1826 C   0  0  0  0  0  0  0  0  0  0  0  0
    3.1880   -0.6752    0.5082 N   0  0  0  0  0  0  0  0  0  0  0  0
    3.6180    0.5608    0.4975 C   0  0  0  0  0  0  0  0  0  0  0  0
    2.6105    1.3896    0.1613 N   0  0  0  0  0  0  0  0  0  0  0  0
    2.6853    2.8476    0.0389 C   0  0  0  0  0  0  0  0  0  0  0  0
    1.4942    0.6043   -0.0459 C   0  0  0  0  0  0  0  0  0  0  0  0
    0.1564    0.8615   -0.4154 C   0  0  0  0  0  0  0  0  0  0  0  0
   -0.2160    2.0017   -0.6268 O   0  0  0  0  0  0  0  0  0  0  0  0
   -2.4898   -0.7651   -1.4575 H   0  0  0  0  0  0  0  0  0  0  0  0
   -2.1415    0.9786   -1.5378 H   0  0  0  0  0  0  0  0  0  0  0  0
   -2.8902   -0.5728    0.9821 H   0  0  0  0  0  0  0  0  0  0  0  0
   -2.5419    1.1710    0.9018 H   0  0  0  0  0  0  0  0  0  0  0  0
   -4.4324    1.4760   -0.6736 H   0  0  0  0  0  0  0  0  0  0  0  0
   -4.7807   -0.2677   -0.5933 H   0  0  0  0  0  0  0  0  0  0  0  0
   -6.2607    1.0068    0.9344 H   0  0  0  0  0  0  0  0  0  0  0  0
   -5.1811   -0.0753    1.8463 H   0  0  0  0  0  0  0  0  0  0  0  0
   -4.8328    1.6684    1.7660 H   0  0  0  0  0  0  0  0  0  0  0  0
    0.4972   -3.7666    0.1253 H   0  0  0  0  0  0  0  0  0  0  0  0
    2.1508   -3.3883   -0.4138 H   0  0  0  0  0  0  0  0  0  0  0  0
    1.7147   -3.2218    1.3039 H   0  0  0  0  0  0  0  0  0  0  0  0
    4.6278    0.8697    0.7242 H   0  0  0  0  0  0  0  0  0  0  0  0
    2.9560    3.1130   -0.9830 H   0  0  0  0  0  0  0  0  0  0  0  0
    1.7162    3.2829    0.2827 H   0  0  0  0  0  0  0  0  0  0  0  0
    3.4393    3.2317    0.7259 H   0  0  0  0  0  0  0  0  0  0  0  0
  1  2  1  0  0  0  0
  2  3  1  0  0  0  0
  3  4  1  0  0  0  0
  1  5  1  0  0  0  0
  5  6  1  0  0  0  0
  6  7  2  0  0  0  0
  6  8  1  0  0  0  0
  8  9  1  0  0  0  0
  8 10  1  0  0  0  0
 10 11  1  0  0  0  0
 11 12  2  0  0  0  0
 12 13  1  0  0  0  0
 13 14  1  0  0  0  0
 13 15  1  0  0  0  0
 10 15  2  0  0  0  0
 15 16  1  0  0  0  0
  5 16  1  0  0  0  0
 16 17  2  0  0  0  0
  1 18  1  0  0  0  0
  1 19  1  0  0  0  0
  2 20  1  0  0  0  0
  2 21  1  0  0  0  0
  3 22  1  0  0  0  0
  3 23  1  0  0  0  0
  4 24  1  0  0  0  0
  4 25  1  0  0  0  0
  4 26  1  0  0  0  0
  9 27  1  0  0  0  0
  9 28  1  0  0  0  0
  9 29  1  0  0  0  0
 12 30  1  0  0  0  0
 14 31  1  0  0  0  0
 14 32  1  0  0  0  0
 14 33  1  0  0  0  0
M  END
$$$$
