C9H12FN3O3
APtclcactv12151716473D 0   0.00000     0.00000
 
 28 28  0  0  0  0  0  0  0  0999 V2000
   -2.8985    0.5438    0.0000 C   0  0  0  0  0  0  0  0  0  0  0  0
   -3.8710   -0.6374   -0.0003 C   0  0  0  0  0  0  0  0  0  0  0  0
   -5.3088   -0.1142    0.0002 C   0  0  0  0  0  0  0  0  0  0  0  0
   -6.2812   -1.2954   -0.0001 C   0  0  0  0  0  0  0  0  0  0  0  0
   -1.5218    0.0429   -0.0004 N   0  0  0  0  0  0  0  0  0  0  0  0
   -0.4894    0.9094   -0.0003 C   0  0  0  0  0  0  0  0  0  0  0  0
   -0.7006    2.1060    0.0002 O   0  0  0  0  0  0  0  0  0  0  0  0
    0.7771    0.4485   -0.0007 N   0  0  0  0  0  0  0  0  0  0  0  0
    1.8034    1.3185   -0.0005 C   0  0  0  0  0  0  0  0  0  0  0  0
    1.5764    2.5126   -0.0004 O   0  0  0  0  0  0  0  0  0  0  0  0
    3.0778    0.8858   -0.0000 N   0  0  0  0  0  0  0  0  0  0  0  0
    3.3488   -0.4348   -0.0002 C   0  0  0  0  0  0  0  0  0  0  0  0
    4.5022   -0.8248    0.0007 O   0  0  0  0  0  0  0  0  0  0  0  0
    2.2781   -1.3668   -0.0008 C   0  0  0  0  0  0  0  0  0  0  0  0
    1.0097   -0.9082    0.0045 C   0  0  0  0  0  0  0  0  0  0  0  0
    2.5262   -2.6948   -0.0014 F   0  0  0  0  0  0  0  0  0  0  0  0
   -3.0644    1.1513   -0.8897 H   0  0  0  0  0  0  0  0  0  0  0  0
   -3.0641    1.1506    0.8903 H   0  0  0  0  0  0  0  0  0  0  0  0
   -3.7054   -1.2441   -0.8905 H   0  0  0  0  0  0  0  0  0  0  0  0
   -3.7051   -1.2448    0.8894 H   0  0  0  0  0  0  0  0  0  0  0  0
   -5.4743    0.4925    0.8904 H   0  0  0  0  0  0  0  0  0  0  0  0
   -5.4747    0.4932   -0.8895 H   0  0  0  0  0  0  0  0  0  0  0  0
   -7.3055   -0.9227    0.0002 H   0  0  0  0  0  0  0  0  0  0  0  0
   -6.1157   -1.9021   -0.8904 H   0  0  0  0  0  0  0  0  0  0  0  0
   -6.1153   -1.9028    0.8896 H   0  0  0  0  0  0  0  0  0  0  0  0
   -1.3532   -0.9123   -0.0008 H   0  0  0  0  0  0  0  0  0  0  0  0
    3.8052    1.5276    0.0001 H   0  0  0  0  0  0  0  0  0  0  0  0
    0.1814   -1.6014    0.0044 H   0  0  0  0  0  0  0  0  0  0  0  0
  1  2  1  0  0  0  0
  2  3  1  0  0  0  0
  3  4  1  0  0  0  0
  1  5  1  0  0  0  0
  5  6  1  0  0  0  0
  6  7  2  0  0  0  0
  6  8  1  0  0  0  0
  8  9  1  0  0  0  0
  9 10  2  0  0  0  0
  9 11  1  0  0  0  0
 11 12  1  0  0  0  0
 12 13  2  0  0  0  0
 12 14  1  0  0  0  0
 14 15  2  0  0  0  0
  8 15  1  0  0  0  0
 14 16  1  0  0  0  0
  1 17  1  0  0  0  0
  1 18  1  0  0  0  0
  2 19  1  0  0  0  0
  2 20  1  0  0  0  0
  3 21  1  0  0  0  0
  3 22  1  0  0  0  0
  4 23  1  0  0  0  0
  4 24  1  0  0  0  0
  4 25  1  0  0  0  0
  5 26  1  0  0  0  0
 11 27  1  0  0  0  0
 15 28  1  0  0  0  0
M  END
$$$$
