C4H6
APtclcactv12211716373D 0   0.00000     0.00000
 
 10  9  0  0  0  0  0  0  0  0999 V2000
   -1.8493    0.2658    0.0000 C   0  0  0  0  0  0  0  0  0  0  0  0
   -0.7502   -0.1467   -0.0000 C   0  0  0  0  0  0  0  0  0  0  0  0
    0.6279   -0.6639   -0.0000 C   0  0  0  0  0  0  0  0  0  0  0  0
    1.6123    0.5074    0.0000 C   0  0  0  0  0  0  0  0  0  0  0  0
   -2.8324    0.6348    0.0000 H   0  0  0  0  0  0  0  0  0  0  0  0
    0.7875   -1.2727    0.8900 H   0  0  0  0  0  0  0  0  0  0  0  0
    0.7875   -1.2727   -0.8900 H   0  0  0  0  0  0  0  0  0  0  0  0
    2.6328    0.1243   -0.0000 H   0  0  0  0  0  0  0  0  0  0  0  0
    1.4527    1.1161   -0.8900 H   0  0  0  0  0  0  0  0  0  0  0  0
    1.4527    1.1161    0.8900 H   0  0  0  0  0  0  0  0  0  0  0  0
  1  2  3  0  0  0  0
  2  3  1  0  0  0  0
  3  4  1  0  0  0  0
  1  5  1  0  0  0  0
  3  6  1  0  0  0  0
  3  7  1  0  0  0  0
  4  8  1  0  0  0  0
  4  9  1  0  0  0  0
  4 10  1  0  0  0  0
M  END
$$$$
