C16H15FN2O5
APtclcactv12211717113D 0   0.00000     0.00000
 
 39 40  0  0  0  0  0  0  0  0999 V2000
    4.0222   -0.4803    0.3564 C   0  0  0  0  0  0  0  0  0  0  0  0
    5.1787   -0.5735   -0.6053 C   0  0  0  0  0  0  0  0  0  0  0  0
    6.0017    0.7146   -0.5396 C   0  0  0  0  0  0  0  0  0  0  0  0
    7.1759    0.6200   -1.5159 C   0  0  0  0  0  0  0  0  0  0  0  0
    3.8717    0.5143    1.0257 O   0  0  0  0  0  0  0  0  0  0  0  0
    3.1562   -1.5001    0.4654 O   0  0  0  0  0  0  0  0  0  0  0  0
    2.0664   -1.3411    1.4116 C   0  0  0  0  0  0  0  0  0  0  0  0
    1.0124   -0.5210    0.8093 N   0  0  0  0  0  0  0  0  0  0  0  0
   -0.1217   -1.1033    0.3794 C   0  0  0  0  0  0  0  0  0  0  0  0
   -1.1062   -0.3740   -0.1778 N   0  0  0  0  0  0  0  0  0  0  0  0
   -0.9704    0.9604   -0.3148 C   0  0  0  0  0  0  0  0  0  0  0  0
    0.2179    1.5882    0.1329 C   0  0  0  0  0  0  0  0  0  0  0  0
    1.1884    0.8338    0.6937 C   0  0  0  0  0  0  0  0  0  0  0  0
    0.3762    2.9239    0.0059 F   0  0  0  0  0  0  0  0  0  0  0  0
   -1.8610    1.6198   -0.8193 O   0  0  0  0  0  0  0  0  0  0  0  0
   -2.2328   -0.9806   -0.6011 C   0  0  0  0  0  0  0  0  0  0  0  0
   -3.5510   -0.3958   -0.2818 C   0  0  0  0  0  0  0  0  0  0  0  0
   -4.7104   -0.9268   -0.8511 C   0  0  0  0  0  0  0  0  0  0  0  0
   -5.9382   -0.3761   -0.5481 C   0  0  0  0  0  0  0  0  0  0  0  0
   -6.0228    0.7000    0.3178 C   0  0  0  0  0  0  0  0  0  0  0  0
   -4.8781    1.2311    0.8854 C   0  0  0  0  0  0  0  0  0  0  0  0
   -3.6442    0.6868    0.5954 C   0  0  0  0  0  0  0  0  0  0  0  0
   -2.1642   -2.0082   -1.2453 O   0  0  0  0  0  0  0  0  0  0  0  0
   -0.2591   -2.3055    0.4956 O   0  0  0  0  0  0  0  0  0  0  0  0
    5.8085   -1.4212   -0.3352 H   0  0  0  0  0  0  0  0  0  0  0  0
    4.7992   -0.7109   -1.6178 H   0  0  0  0  0  0  0  0  0  0  0  0
    5.3719    1.5623   -0.8097 H   0  0  0  0  0  0  0  0  0  0  0  0
    6.3813    0.8520    0.4729 H   0  0  0  0  0  0  0  0  0  0  0  0
    7.7622    1.5377   -1.4691 H   0  0  0  0  0  0  0  0  0  0  0  0
    7.8056   -0.2276   -1.2458 H   0  0  0  0  0  0  0  0  0  0  0  0
    6.7963    0.4826   -2.5284 H   0  0  0  0  0  0  0  0  0  0  0  0
    1.6625   -2.3203    1.6686 H   0  0  0  0  0  0  0  0  0  0  0  0
    2.4362   -0.8526    2.3131 H   0  0  0  0  0  0  0  0  0  0  0  0
    2.1013    1.2943    1.0414 H   0  0  0  0  0  0  0  0  0  0  0  0
   -4.6458   -1.7664   -1.5273 H   0  0  0  0  0  0  0  0  0  0  0  0
   -6.8357   -0.7855   -0.9879 H   0  0  0  0  0  0  0  0  0  0  0  0
   -6.9867    1.1275    0.5513 H   0  0  0  0  0  0  0  0  0  0  0  0
   -4.9512    2.0712    1.5601 H   0  0  0  0  0  0  0  0  0  0  0  0
   -2.7515    1.1023    1.0392 H   0  0  0  0  0  0  0  0  0  0  0  0
  1  2  1  0  0  0  0
  2  3  1  0  0  0  0
  3  4  1  0  0  0  0
  1  5  2  0  0  0  0
  1  6  1  0  0  0  0
  6  7  1  0  0  0  0
  7  8  1  0  0  0  0
  8  9  1  0  0  0  0
  9 10  1  0  0  0  0
 10 11  1  0  0  0  0
 11 12  1  0  0  0  0
 12 13  2  0  0  0  0
  8 13  1  0  0  0  0
 12 14  1  0  0  0  0
 11 15  2  0  0  0  0
 10 16  1  0  0  0  0
 16 17  1  0  0  0  0
 17 18  2  0  0  0  0
 18 19  1  0  0  0  0
 19 20  2  0  0  0  0
 20 21  1  0  0  0  0
 21 22  2  0  0  0  0
 17 22  1  0  0  0  0
 16 23  2  0  0  0  0
  9 24  2  0  0  0  0
  2 25  1  0  0  0  0
  2 26  1  0  0  0  0
  3 27  1  0  0  0  0
  3 28  1  0  0  0  0
  4 29  1  0  0  0  0
  4 30  1  0  0  0  0
  4 31  1  0  0  0  0
  7 32  1  0  0  0  0
  7 33  1  0  0  0  0
 13 34  1  0  0  0  0
 18 35  1  0  0  0  0
 19 36  1  0  0  0  0
 20 37  1  0  0  0  0
 21 38  1  0  0  0  0
 22 39  1  0  0  0  0
M  END
$$$$
