C12H7ClO2
APtclcactv12111704543D 0   0.00000     0.00000
 
 22 24  0  0  0  0  0  0  0  0999 V2000
    2.6465   -1.9820    0.0004 Cl  0  0  0  0  0  0  0  0  0  0  0  0
    2.1705   -0.3125    0.0003 C   0  0  0  0  0  0  0  0  0  0  0  0
    3.1330    0.6821   -0.0000 C   0  0  0  0  0  0  0  0  0  0  0  0
    2.7563    2.0120   -0.0000 C   0  0  0  0  0  0  0  0  0  0  0  0
    1.4163    2.3547    0.0003 C   0  0  0  0  0  0  0  0  0  0  0  0
    0.4480    1.3640    0.0007 C   0  0  0  0  0  0  0  0  0  0  0  0
   -0.8705    1.6984    0.0006 O   0  0  0  0  0  0  0  0  0  0  0  0
   -1.8187    0.7233    0.0006 C   0  0  0  0  0  0  0  0  0  0  0  0
   -1.4402   -0.6157    0.0007 C   0  0  0  0  0  0  0  0  0  0  0  0
   -0.1218   -0.9501    0.0007 O   0  0  0  0  0  0  0  0  0  0  0  0
    0.8264    0.0254   -0.0051 C   0  0  0  0  0  0  0  0  0  0  0  0
   -2.4077   -1.6067    0.0002 C   0  0  0  0  0  0  0  0  0  0  0  0
   -3.7478   -1.2639   -0.0003 C   0  0  0  0  0  0  0  0  0  0  0  0
   -4.1239    0.0661   -0.0004 C   0  0  0  0  0  0  0  0  0  0  0  0
   -3.1621    1.0602    0.0001 C   0  0  0  0  0  0  0  0  0  0  0  0
    4.1804    0.4187    0.0000 H   0  0  0  0  0  0  0  0  0  0  0  0
    3.5101    2.7854    0.0000 H   0  0  0  0  0  0  0  0  0  0  0  0
    1.1248    3.3946    0.0007 H   0  0  0  0  0  0  0  0  0  0  0  0
   -2.1160   -2.6466   -0.0001 H   0  0  0  0  0  0  0  0  0  0  0  0
   -4.5018   -2.0371   -0.0010 H   0  0  0  0  0  0  0  0  0  0  0  0
   -5.1712    0.3297   -0.0011 H   0  0  0  0  0  0  0  0  0  0  0  0
   -3.4585    2.0987   -0.0003 H   0  0  0  0  0  0  0  0  0  0  0  0
  1  2  1  0  0  0  0
  2  3  2  0  0  0  0
  3  4  1  0  0  0  0
  4  5  2  0  0  0  0
  5  6  1  0  0  0  0
  6  7  1  0  0  0  0
  7  8  1  0  0  0  0
  8  9  2  0  0  0  0
  9 10  1  0  0  0  0
 10 11  1  0  0  0  0
  6 11  2  0  0  0  0
  2 11  1  0  0  0  0
  9 12  1  0  0  0  0
 12 13  2  0  0  0  0
 13 14  1  0  0  0  0
 14 15  2  0  0  0  0
  8 15  1  0  0  0  0
  3 16  1  0  0  0  0
  4 17  1  0  0  0  0
  5 18  1  0  0  0  0
 12 19  1  0  0  0  0
 13 20  1  0  0  0  0
 14 21  1  0  0  0  0
 15 22  1  0  0  0  0
M  END
$$$$
