C3H6ClNO2
APtclcactv12101715373D 0   0.00000     0.00000
 
 13 12  0  0  0  0  0  0  0  0999 V2000
   -2.0273    0.2248    0.0207 Cl  0  0  0  0  0  0  0  0  0  0  0  0
   -0.7886   -1.0485   -0.2881 C   0  0  0  0  0  0  0  0  0  0  0  0
    0.4968   -0.7032    0.4664 C   0  0  0  0  0  0  0  0  0  0  0  0
    1.5479   -1.7837    0.2043 C   0  0  0  0  0  0  0  0  0  0  0  0
    1.0018    0.5918    0.0036 N   0  3  0  0  0  0  0  0  0  0  0  0
    1.1260    1.5134    0.7901 O   0  0  0  0  0  0  0  0  0  0  0  0
    1.2975    0.7468   -1.1678 O   0  5  0  0  0  0  0  0  0  0  0  0
   -1.1643   -2.0120    0.0562 H   0  0  0  0  0  0  0  0  0  0  0  0
   -0.5798   -1.1008   -1.3567 H   0  0  0  0  0  0  0  0  0  0  0  0
    0.2881   -0.6509    1.5349 H   0  0  0  0  0  0  0  0  0  0  0  0
    2.4637   -1.5377    0.7418 H   0  0  0  0  0  0  0  0  0  0  0  0
    1.1722   -2.7472    0.5487 H   0  0  0  0  0  0  0  0  0  0  0  0
    1.7567   -1.8359   -0.8642 H   0  0  0  0  0  0  0  0  0  0  0  0
  1  2  1  0  0  0  0
  2  3  1  0  0  0  0
  3  4  1  0  0  0  0
  3  5  1  0  0  0  0
  5  6  2  0  0  0  0
  5  7  1  0  0  0  0
  2  8  1  0  0  0  0
  2  9  1  0  0  0  0
  3 10  1  0  0  0  0
  4 11  1  0  0  0  0
  4 12  1  0  0  0  0
  4 13  1  0  0  0  0
M  CHG  2   5   1   7  -1
M  END
$$$$
