C8H17Cl
APtclcactv12151716383D 0   0.00000     0.00000
 
 26 25  0  0  0  0  0  0  0  0999 V2000
   -4.4989    0.3129   -0.0000 Cl  0  0  0  0  0  0  0  0  0  0  0  0
   -2.9940   -0.6801    0.0000 C   0  0  0  0  0  0  0  0  0  0  0  0
   -1.7739    0.2430   -0.0000 C   0  0  0  0  0  0  0  0  0  0  0  0
   -0.4968   -0.5996    0.0000 C   0  0  0  0  0  0  0  0  0  0  0  0
    0.7233    0.3235    0.0000 C   0  0  0  0  0  0  0  0  0  0  0  0
    2.0003   -0.5191   -0.0000 C   0  0  0  0  0  0  0  0  0  0  0  0
    3.2205    0.4040    0.0000 C   0  0  0  0  0  0  0  0  0  0  0  0
    4.4975   -0.4386   -0.0000 C   0  0  0  0  0  0  0  0  0  0  0  0
    5.7177    0.4845    0.0000 C   0  0  0  0  0  0  0  0  0  0  0  0
   -2.9737   -1.3091    0.8900 H   0  0  0  0  0  0  0  0  0  0  0  0
   -2.9737   -1.3091   -0.8900 H   0  0  0  0  0  0  0  0  0  0  0  0
   -1.7942    0.8720   -0.8900 H   0  0  0  0  0  0  0  0  0  0  0  0
   -1.7942    0.8720    0.8900 H   0  0  0  0  0  0  0  0  0  0  0  0
   -0.4766   -1.2286    0.8900 H   0  0  0  0  0  0  0  0  0  0  0  0
   -0.4766   -1.2286   -0.8900 H   0  0  0  0  0  0  0  0  0  0  0  0
    0.7030    0.9525   -0.8900 H   0  0  0  0  0  0  0  0  0  0  0  0
    0.7030    0.9525    0.8900 H   0  0  0  0  0  0  0  0  0  0  0  0
    2.0206   -1.1481    0.8900 H   0  0  0  0  0  0  0  0  0  0  0  0
    2.0206   -1.1481   -0.8900 H   0  0  0  0  0  0  0  0  0  0  0  0
    3.2002    1.0330   -0.8900 H   0  0  0  0  0  0  0  0  0  0  0  0
    3.2002    1.0330    0.8900 H   0  0  0  0  0  0  0  0  0  0  0  0
    4.5178   -1.0676    0.8900 H   0  0  0  0  0  0  0  0  0  0  0  0
    4.5178   -1.0676   -0.8900 H   0  0  0  0  0  0  0  0  0  0  0  0
    6.6275   -0.1158   -0.0000 H   0  0  0  0  0  0  0  0  0  0  0  0
    5.6974    1.1135   -0.8900 H   0  0  0  0  0  0  0  0  0  0  0  0
    5.6974    1.1135    0.8900 H   0  0  0  0  0  0  0  0  0  0  0  0
  1  2  1  0  0  0  0
  2  3  1  0  0  0  0
  3  4  1  0  0  0  0
  4  5  1  0  0  0  0
  5  6  1  0  0  0  0
  6  7  1  0  0  0  0
  7  8  1  0  0  0  0
  8  9  1  0  0  0  0
  2 10  1  0  0  0  0
  2 11  1  0  0  0  0
  3 12  1  0  0  0  0
  3 13  1  0  0  0  0
  4 14  1  0  0  0  0
  4 15  1  0  0  0  0
  5 16  1  0  0  0  0
  5 17  1  0  0  0  0
  6 18  1  0  0  0  0
  6 19  1  0  0  0  0
  7 20  1  0  0  0  0
  7 21  1  0  0  0  0
  8 22  1  0  0  0  0
  8 23  1  0  0  0  0
  9 24  1  0  0  0  0
  9 25  1  0  0  0  0
  9 26  1  0  0  0  0
M  END
$$$$
