C14H17NO
APtclcactv12211717023D 0   0.00000     0.00000
 
 33 34  0  0  0  0  0  0  0  0999 V2000
    1.1389    1.0098   -0.2382 C   0  0  0  0  0  0  0  0  0  0  0  0
   -0.1583    0.3307   -0.2236 C   0  0  0  0  0  0  0  0  0  0  0  0
   -1.2810    1.0277    0.0427 C   0  0  0  0  0  0  0  0  0  0  0  0
   -2.5851    0.3449    0.0575 C   0  0  0  0  0  0  0  0  0  0  0  0
   -3.7520    1.0645    0.3333 C   0  0  0  0  0  0  0  0  0  0  0  0
   -4.9698    0.4178    0.3453 C   0  0  0  0  0  0  0  0  0  0  0  0
   -5.0391   -0.9398    0.0852 C   0  0  0  0  0  0  0  0  0  0  0  0
   -3.8886   -1.6589   -0.1882 C   0  0  0  0  0  0  0  0  0  0  0  0
   -2.6640   -1.0253   -0.2100 C   0  0  0  0  0  0  0  0  0  0  0  0
    1.1947    2.2181   -0.1045 O   0  0  0  0  0  0  0  0  0  0  0  0
    2.2715    0.2961   -0.3942 N   0  0  0  0  0  0  0  0  0  0  0  0
    3.5855    0.9457   -0.2934 C   0  0  0  0  0  0  0  0  0  0  0  0
    4.4311    0.1905    0.7368 C   0  0  0  0  0  0  0  0  0  0  0  0
    4.4897   -1.2906    0.3557 C   0  0  0  0  0  0  0  0  0  0  0  0
    3.0766   -1.8781    0.3667 C   0  0  0  0  0  0  0  0  0  0  0  0
    2.2157   -1.1474   -0.6622 C   0  0  0  0  0  0  0  0  0  0  0  0
   -0.2155   -0.7286   -0.4262 H   0  0  0  0  0  0  0  0  0  0  0  0
   -1.2238    2.0870    0.2453 H   0  0  0  0  0  0  0  0  0  0  0  0
   -3.6995    2.1238    0.5368 H   0  0  0  0  0  0  0  0  0  0  0  0
   -5.8719    0.9720    0.5585 H   0  0  0  0  0  0  0  0  0  0  0  0
   -5.9958   -1.4407    0.0960 H   0  0  0  0  0  0  0  0  0  0  0  0
   -3.9506   -2.7182   -0.3895 H   0  0  0  0  0  0  0  0  0  0  0  0
   -1.7671   -1.5878   -0.4235 H   0  0  0  0  0  0  0  0  0  0  0  0
    4.0817    0.9190   -1.2636 H   0  0  0  0  0  0  0  0  0  0  0  0
    3.4583    1.9801    0.0259 H   0  0  0  0  0  0  0  0  0  0  0  0
    5.4401    0.6025    0.7516 H   0  0  0  0  0  0  0  0  0  0  0  0
    3.9806    0.2946    1.7239 H   0  0  0  0  0  0  0  0  0  0  0  0
    4.9175   -1.3923   -0.6416 H   0  0  0  0  0  0  0  0  0  0  0  0
    5.1111   -1.8259    1.0736 H   0  0  0  0  0  0  0  0  0  0  0  0
    3.1215   -2.9384    0.1180 H   0  0  0  0  0  0  0  0  0  0  0  0
    2.6388   -1.7545    1.3572 H   0  0  0  0  0  0  0  0  0  0  0  0
    1.1850   -1.4944   -0.5888 H   0  0  0  0  0  0  0  0  0  0  0  0
    2.5987   -1.3427   -1.6639 H   0  0  0  0  0  0  0  0  0  0  0  0
  1  2  1  0  0  0  0
  2  3  2  0  0  0  0
  3  4  1  0  0  0  0
  4  5  2  0  0  0  0
  5  6  1  0  0  0  0
  6  7  2  0  0  0  0
  7  8  1  0  0  0  0
  8  9  2  0  0  0  0
  4  9  1  0  0  0  0
  1 10  2  0  0  0  0
  1 11  1  0  0  0  0
 11 12  1  0  0  0  0
 12 13  1  0  0  0  0
 13 14  1  0  0  0  0
 14 15  1  0  0  0  0
 15 16  1  0  0  0  0
 11 16  1  0  0  0  0
  2 17  1  0  0  0  0
  3 18  1  0  0  0  0
  5 19  1  0  0  0  0
  6 20  1  0  0  0  0
  7 21  1  0  0  0  0
  8 22  1  0  0  0  0
  9 23  1  0  0  0  0
 12 24  1  0  0  0  0
 12 25  1  0  0  0  0
 13 26  1  0  0  0  0
 13 27  1  0  0  0  0
 14 28  1  0  0  0  0
 14 29  1  0  0  0  0
 15 30  1  0  0  0  0
 15 31  1  0  0  0  0
 16 32  1  0  0  0  0
 16 33  1  0  0  0  0
M  END
$$$$
