C12H12
APtclcactv12111704573D 0   0.00000     0.00000
 
 24 25  0  0  0  0  0  0  0  0999 V2000
    2.2813   -1.0098    0.5146 C   0  0  0  0  0  0  0  0  0  0  0  0
    2.6938   -1.6203   -0.8264 C   0  0  0  0  0  0  0  0  0  0  0  0
    1.2753    0.0872    0.2788 C   0  0  0  0  0  0  0  0  0  0  0  0
    1.6842    1.3818    0.1857 C   0  0  0  0  0  0  0  0  0  0  0  0
    0.7685    2.4098   -0.0321 C   0  0  0  0  0  0  0  0  0  0  0  0
   -0.5612    2.1489   -0.1579 C   0  0  0  0  0  0  0  0  0  0  0  0
   -1.0214    0.8240   -0.0678 C   0  0  0  0  0  0  0  0  0  0  0  0
   -2.3865    0.5156   -0.1920 C   0  0  0  0  0  0  0  0  0  0  0  0
   -2.7956   -0.7794   -0.0988 C   0  0  0  0  0  0  0  0  0  0  0  0
   -1.8802   -1.8070    0.1187 C   0  0  0  0  0  0  0  0  0  0  0  0
   -0.5502   -1.5459    0.2445 C   0  0  0  0  0  0  0  0  0  0  0  0
   -0.0895   -0.2220    0.1483 C   0  0  0  0  0  0  0  0  0  0  0  0
    1.8371   -1.7811    1.1437 H   0  0  0  0  0  0  0  0  0  0  0  0
    3.1594   -0.5969    1.0112 H   0  0  0  0  0  0  0  0  0  0  0  0
    3.1380   -0.8489   -1.4555 H   0  0  0  0  0  0  0  0  0  0  0  0
    3.4214   -2.4137   -0.6559 H   0  0  0  0  0  0  0  0  0  0  0  0
    1.8157   -2.0331   -1.3231 H   0  0  0  0  0  0  0  0  0  0  0  0
    2.7340    1.6163    0.2823 H   0  0  0  0  0  0  0  0  0  0  0  0
    1.1195    3.4288   -0.1018 H   0  0  0  0  0  0  0  0  0  0  0  0
   -1.2592    2.9558   -0.3257 H   0  0  0  0  0  0  0  0  0  0  0  0
   -3.1075    1.3019   -0.3601 H   0  0  0  0  0  0  0  0  0  0  0  0
   -3.8455   -1.0137   -0.1947 H   0  0  0  0  0  0  0  0  0  0  0  0
   -2.2312   -2.8260    0.1890 H   0  0  0  0  0  0  0  0  0  0  0  0
    0.1477   -2.3526    0.4135 H   0  0  0  0  0  0  0  0  0  0  0  0
  1  2  1  0  0  0  0
  1  3  1  0  0  0  0
  3  4  2  0  0  0  0
  4  5  1  0  0  0  0
  5  6  2  0  0  0  0
  6  7  1  0  0  0  0
  7  8  2  0  0  0  0
  8  9  1  0  0  0  0
  9 10  2  0  0  0  0
 10 11  1  0  0  0  0
 11 12  2  0  0  0  0
  3 12  1  0  0  0  0
  7 12  1  0  0  0  0
  1 13  1  0  0  0  0
  1 14  1  0  0  0  0
  2 15  1  0  0  0  0
  2 16  1  0  0  0  0
  2 17  1  0  0  0  0
  4 18  1  0  0  0  0
  5 19  1  0  0  0  0
  6 20  1  0  0  0  0
  8 21  1  0  0  0  0
  9 22  1  0  0  0  0
 10 23  1  0  0  0  0
 11 24  1  0  0  0  0
M  END
$$$$
