C6H4FI
APtclcactv12211716493D 0   0.00000     0.00000
 
 12 12  0  0  0  0  0  0  0  0999 V2000
   -4.4882   -0.0000   -0.0010 F   0  0  0  0  0  0  0  0  0  0  0  0
   -3.1372   -0.0000   -0.0009 C   0  0  0  0  0  0  0  0  0  0  0  0
   -2.4444    1.1989    0.0003 C   0  0  0  0  0  0  0  0  0  0  0  0
   -1.0625    1.1979    0.0009 C   0  0  0  0  0  0  0  0  0  0  0  0
   -0.3714   -0.0000   -0.0002 C   0  0  0  0  0  0  0  0  0  0  0  0
   -1.0625   -1.1979   -0.0019 C   0  0  0  0  0  0  0  0  0  0  0  0
   -2.4445   -1.1989    0.0037 C   0  0  0  0  0  0  0  0  0  0  0  0
    1.7236   -0.0000   -0.0000 I   0  0  0  0  0  0  0  0  0  0  0  0
   -2.9840    2.1344    0.0005 H   0  0  0  0  0  0  0  0  0  0  0  0
   -0.5221    2.1330    0.0019 H   0  0  0  0  0  0  0  0  0  0  0  0
   -0.5221   -2.1330   -0.0036 H   0  0  0  0  0  0  0  0  0  0  0  0
   -2.9840   -2.1344    0.0027 H   0  0  0  0  0  0  0  0  0  0  0  0
  1  2  1  0  0  0  0
  2  3  2  0  0  0  0
  3  4  1  0  0  0  0
  4  5  2  0  0  0  0
  5  6  1  0  0  0  0
  6  7  2  0  0  0  0
  2  7  1  0  0  0  0
  5  8  1  0  0  0  0
  3  9  1  0  0  0  0
  4 10  1  0  0  0  0
  6 11  1  0  0  0  0
  7 12  1  0  0  0  0
M  END
$$$$
