C11H15FN2O4
APtclcactv12211717343D 0   0.00000     0.00000
 
 33 33  0  0  0  0  0  0  0  0999 V2000
   -1.9047   -0.7853    0.0002 C   0  0  0  0  0  0  0  0  0  0  0  0
   -2.9953    0.2878    0.0001 C   0  0  0  0  0  0  0  0  0  0  0  0
   -4.3705   -0.3828    0.0001 C   0  0  0  0  0  0  0  0  0  0  0  0
   -5.4612    0.6902    0.0001 C   0  0  0  0  0  0  0  0  0  0  0  0
   -6.8364    0.0196    0.0001 C   0  0  0  0  0  0  0  0  0  0  0  0
   -7.9270    1.0927    0.0000 C   0  0  0  0  0  0  0  0  0  0  0  0
   -0.5996   -0.1489    0.0002 O   0  0  0  0  0  0  0  0  0  0  0  0
    0.4751   -0.9589    0.0002 C   0  0  0  0  0  0  0  0  0  0  0  0
    0.3270   -2.1642    0.0003 O   0  0  0  0  0  0  0  0  0  0  0  0
    1.7158   -0.4324    0.0003 N   0  0  0  0  0  0  0  0  0  0  0  0
    2.7863   -1.2474    0.0003 C   0  0  0  0  0  0  0  0  0  0  0  0
    2.6220   -2.4517    0.0003 O   0  0  0  0  0  0  0  0  0  0  0  0
    4.0362   -0.7486   -0.0001 N   0  0  0  0  0  0  0  0  0  0  0  0
    4.2378    0.5844    0.0003 C   0  0  0  0  0  0  0  0  0  0  0  0
    5.3692    1.0342   -0.0001 O   0  0  0  0  0  0  0  0  0  0  0  0
    3.1197    1.4592    0.0007 C   0  0  0  0  0  0  0  0  0  0  0  0
    1.8770    0.9350   -0.0054 C   0  0  0  0  0  0  0  0  0  0  0  0
    3.2979    2.7984    0.0016 F   0  0  0  0  0  0  0  0  0  0  0  0
   -2.0061   -1.4064    0.8902 H   0  0  0  0  0  0  0  0  0  0  0  0
   -2.0060   -1.4064   -0.8898 H   0  0  0  0  0  0  0  0  0  0  0  0
   -2.8940    0.9089    0.8901 H   0  0  0  0  0  0  0  0  0  0  0  0
   -2.8939    0.9088   -0.8898 H   0  0  0  0  0  0  0  0  0  0  0  0
   -4.4719   -1.0039   -0.8899 H   0  0  0  0  0  0  0  0  0  0  0  0
   -4.4719   -1.0039    0.8901 H   0  0  0  0  0  0  0  0  0  0  0  0
   -5.3598    1.3113    0.8901 H   0  0  0  0  0  0  0  0  0  0  0  0
   -5.3598    1.3113   -0.8899 H   0  0  0  0  0  0  0  0  0  0  0  0
   -6.9377   -0.6015   -0.8899 H   0  0  0  0  0  0  0  0  0  0  0  0
   -6.9378   -0.6014    0.8900 H   0  0  0  0  0  0  0  0  0  0  0  0
   -7.8257    1.7138    0.8900 H   0  0  0  0  0  0  0  0  0  0  0  0
   -7.8256    1.7138   -0.8900 H   0  0  0  0  0  0  0  0  0  0  0  0
   -8.9067    0.6149   -0.0000 H   0  0  0  0  0  0  0  0  0  0  0  0
    4.7962   -1.3514   -0.0004 H   0  0  0  0  0  0  0  0  0  0  0  0
    1.0137    1.5838   -0.0056 H   0  0  0  0  0  0  0  0  0  0  0  0
  1  2  1  0  0  0  0
  2  3  1  0  0  0  0
  3  4  1  0  0  0  0
  4  5  1  0  0  0  0
  5  6  1  0  0  0  0
  1  7  1  0  0  0  0
  7  8  1  0  0  0  0
  8  9  2  0  0  0  0
  8 10  1  0  0  0  0
 10 11  1  0  0  0  0
 11 12  2  0  0  0  0
 11 13  1  0  0  0  0
 13 14  1  0  0  0  0
 14 15  2  0  0  0  0
 14 16  1  0  0  0  0
 16 17  2  0  0  0  0
 10 17  1  0  0  0  0
 16 18  1  0  0  0  0
  1 19  1  0  0  0  0
  1 20  1  0  0  0  0
  2 21  1  0  0  0  0
  2 22  1  0  0  0  0
  3 23  1  0  0  0  0
  3 24  1  0  0  0  0
  4 25  1  0  0  0  0
  4 26  1  0  0  0  0
  5 27  1  0  0  0  0
  5 28  1  0  0  0  0
  6 29  1  0  0  0  0
  6 30  1  0  0  0  0
  6 31  1  0  0  0  0
 13 32  1  0  0  0  0
 17 33  1  0  0  0  0
M  END
$$$$
