C10H6Cl6O2
APtclcactv12151716543D 0   0.00000     0.00000
 
 24 27  0  0  0  0  0  0  0  0999 V2000
    3.9660   -1.9866   -0.9358 H   0  0  0  0  0  0  0  0  0  0  0  0
    3.0647   -1.8312   -1.2498 O   0  0  0  0  0  0  0  0  0  0  0  0
    2.3607   -0.8238   -0.5207 C   0  0  0  0  0  0  0  0  0  0  0  0
   -1.0278    0.0271    2.4134 Cl  0  0  0  0  0  0  0  0  0  0  0  0
    1.8211    0.3482    1.5574 Cl  0  0  0  0  0  0  0  0  0  0  0  0
    0.2167   -2.7561    0.7144 Cl  0  0  0  0  0  0  0  0  0  0  0  0
   -2.6048   -2.0084   -0.9973 Cl  0  0  0  0  0  0  0  0  0  0  0  0
   -3.0521    1.3126   -1.0923 Cl  0  0  0  0  0  0  0  0  0  0  0  0
   -0.4634    2.8836    0.4636 Cl  0  0  0  0  0  0  0  0  0  0  0  0
    3.0852    1.2699   -1.8527 O   0  0  0  0  0  0  0  0  0  0  0  0
    2.0167    1.5727   -0.9377 C   0  0  0  0  0  0  0  0  0  0  0  0
    3.0856    0.5108   -0.6559 C   0  0  0  0  0  0  0  0  0  0  0  0
    0.9433   -0.6611   -1.0961 C   0  0  0  0  0  0  0  0  0  0  0  0
    0.6891    0.8633   -1.1987 C   0  0  0  0  0  0  0  0  0  0  0  0
   -1.4410   -0.8147   -0.5135 C   0  0  0  0  0  0  0  0  0  0  0  0
   -1.6171    0.4938   -0.5594 C   0  0  0  0  0  0  0  0  0  0  0  0
   -0.0430   -1.1055    0.0371 C   0  0  0  0  0  0  0  0  0  0  0  0
   -0.3275    1.1633   -0.0588 C   0  0  0  0  0  0  0  0  0  0  0  0
    0.1158    0.1113    1.0220 C   0  0  0  0  0  0  0  0  0  0  0  0
    1.9978    2.5308   -0.4184 H   0  0  0  0  0  0  0  0  0  0  0  0
    0.2908    1.1288   -2.1779 H   0  0  0  0  0  0  0  0  0  0  0  0
    0.7956   -1.1992   -2.0324 H   0  0  0  0  0  0  0  0  0  0  0  0
    3.8553    0.7182    0.0874 H   0  0  0  0  0  0  0  0  0  0  0  0
    2.3010   -1.1053    0.5307 H   0  0  0  0  0  0  0  0  0  0  0  0
 10 11  1  0  0  0  0
 10 12  1  0  0  0  0
 11 12  1  0  0  0  0
 11 14  1  0  0  0  0
 11 20  1  0  0  0  0
  3 12  1  0  0  0  0
 12 23  1  0  0  0  0
  3 13  1  0  0  0  0
  2  3  1  0  0  0  0
 13 17  1  0  0  0  0
 13 14  1  0  0  0  0
 13 22  1  0  0  0  0
 15 17  1  0  0  0  0
 17 19  1  0  0  0  0
  6 17  1  0  0  0  0
 15 16  2  0  0  0  0
  7 15  1  0  0  0  0
 16 18  1  0  0  0  0
  8 16  1  0  0  0  0
 14 18  1  0  0  0  0
 18 19  1  0  0  0  0
  9 18  1  0  0  0  0
 14 21  1  0  0  0  0
  4 19  1  0  0  0  0
  5 19  1  0  0  0  0
  3 24  1  0  0  0  0
  1  2  1  0  0  0  0
M  END
$$$$
