C7H8N2O3
APtclcactv12151716183D 0   0.00000     0.00000
 
 20 20  0  0  0  0  0  0  0  0999 V2000
   -3.6229    1.3140    0.0012 C   0  0  0  0  0  0  0  0  0  0  0  0
   -2.9528    0.0519    0.0006 O   0  0  0  0  0  0  0  0  0  0  0  0
   -1.5928    0.0748    0.0005 C   0  0  0  0  0  0  0  0  0  0  0  0
   -0.8743   -1.1188   -0.0001 C   0  0  0  0  0  0  0  0  0  0  0  0
    0.5126   -1.0891   -0.0002 C   0  0  0  0  0  0  0  0  0  0  0  0
    1.1775    0.1227    0.0003 C   0  0  0  0  0  0  0  0  0  0  0  0
    0.4637    1.3067    0.0014 C   0  0  0  0  0  0  0  0  0  0  0  0
   -0.9189    1.2849   -0.0048 C   0  0  0  0  0  0  0  0  0  0  0  0
    2.6573    0.1528    0.0002 N   0  3  0  0  0  0  0  0  0  0  0  0
    3.2876   -0.8895   -0.0003 O   0  0  0  0  0  0  0  0  0  0  0  0
    3.2447    1.2197    0.0007 O   0  5  0  0  0  0  0  0  0  0  0  0
   -1.5500   -2.3445   -0.0002 N   0  0  0  0  0  0  0  0  0  0  0  0
   -3.3395    1.8763   -0.8885 H   0  0  0  0  0  0  0  0  0  0  0  0
   -4.7009    1.1530    0.0013 H   0  0  0  0  0  0  0  0  0  0  0  0
   -3.3394    1.8755    0.8914 H   0  0  0  0  0  0  0  0  0  0  0  0
    1.0727   -2.0126   -0.0003 H   0  0  0  0  0  0  0  0  0  0  0  0
    0.9874    2.2512    0.0025 H   0  0  0  0  0  0  0  0  0  0  0  0
   -1.4735    2.2116   -0.0040 H   0  0  0  0  0  0  0  0  0  0  0  0
   -2.5198   -2.3638    0.0002 H   0  0  0  0  0  0  0  0  0  0  0  0
   -1.0484   -3.1748   -0.0006 H   0  0  0  0  0  0  0  0  0  0  0  0
  1  2  1  0  0  0  0
  2  3  1  0  0  0  0
  3  4  2  0  0  0  0
  4  5  1  0  0  0  0
  5  6  2  0  0  0  0
  6  7  1  0  0  0  0
  7  8  2  0  0  0  0
  3  8  1  0  0  0  0
  6  9  1  0  0  0  0
  9 10  2  0  0  0  0
  9 11  1  0  0  0  0
  4 12  1  0  0  0  0
  1 13  1  0  0  0  0
  1 14  1  0  0  0  0
  1 15  1  0  0  0  0
  5 16  1  0  0  0  0
  7 17  1  0  0  0  0
  8 18  1  0  0  0  0
 12 19  1  0  0  0  0
 12 20  1  0  0  0  0
M  CHG  2   9   1  11  -1
M  END
$$$$
