C5H6N2O2
APtclcactv12211716423D 0   0.00000     0.00000
 
 15 15  0  0  0  0  0  0  0  0999 V2000
    2.5419   -0.7410    0.0013 C   0  0  0  0  0  0  0  0  0  0  0  0
    1.0985   -0.4904    0.0011 N   0  0  0  0  0  0  0  0  0  0  0  0
    0.6419    0.7752    0.0001 C   0  0  0  0  0  0  0  0  0  0  0  0
    1.4335    1.6980   -0.0009 O   0  0  0  0  0  0  0  0  0  0  0  0
   -0.6790    1.0341   -0.0001 N   0  0  0  0  0  0  0  0  0  0  0  0
   -1.5699    0.0220    0.0006 C   0  0  0  0  0  0  0  0  0  0  0  0
   -2.7651    0.2554    0.0000 O   0  0  0  0  0  0  0  0  0  0  0  0
   -1.1029   -1.3145    0.0016 C   0  0  0  0  0  0  0  0  0  0  0  0
    0.2274   -1.5456   -0.0038 C   0  0  0  0  0  0  0  0  0  0  0  0
    2.8998   -0.8024    1.0290 H   0  0  0  0  0  0  0  0  0  0  0  0
    2.7476   -1.6804   -0.5118 H   0  0  0  0  0  0  0  0  0  0  0  0
    3.0521    0.0733   -0.5131 H   0  0  0  0  0  0  0  0  0  0  0  0
   -0.9912    1.9525   -0.0005 H   0  0  0  0  0  0  0  0  0  0  0  0
   -1.8014   -2.1382    0.0022 H   0  0  0  0  0  0  0  0  0  0  0  0
    0.6021   -2.5585   -0.0035 H   0  0  0  0  0  0  0  0  0  0  0  0
  1  2  1  0  0  0  0
  2  3  1  0  0  0  0
  3  4  2  0  0  0  0
  3  5  1  0  0  0  0
  5  6  1  0  0  0  0
  6  7  2  0  0  0  0
  6  8  1  0  0  0  0
  8  9  2  0  0  0  0
  2  9  1  0  0  0  0
  1 10  1  0  0  0  0
  1 11  1  0  0  0  0
  1 12  1  0  0  0  0
  5 13  1  0  0  0  0
  8 14  1  0  0  0  0
  9 15  1  0  0  0  0
M  END
$$$$
