C8H10N2O
APtclcactv12151716323D 0   0.00000     0.00000
 
 21 21  0  0  0  0  0  0  0  0999 V2000
    4.0300   -0.2944   -0.2504 C   0  0  0  0  0  0  0  0  0  0  0  0
    2.9009    0.5603    0.1248 N   0  0  0  0  0  0  0  0  0  0  0  0
    1.6410    0.0899    0.0358 C   0  0  0  0  0  0  0  0  0  0  0  0
    1.4415   -1.0437   -0.3559 O   0  0  0  0  0  0  0  0  0  0  0  0
    0.6022    0.8762    0.3810 N   0  0  0  0  0  0  0  0  0  0  0  0
   -0.7093    0.4235    0.1976 C   0  0  0  0  0  0  0  0  0  0  0  0
   -1.0131   -0.9196    0.3763 C   0  0  0  0  0  0  0  0  0  0  0  0
   -2.3084   -1.3632    0.1951 C   0  0  0  0  0  0  0  0  0  0  0  0
   -3.3023   -0.4713   -0.1639 C   0  0  0  0  0  0  0  0  0  0  0  0
   -3.0030    0.8668   -0.3426 C   0  0  0  0  0  0  0  0  0  0  0  0
   -1.7107    1.3176   -0.1578 C   0  0  0  0  0  0  0  0  0  0  0  0
    4.0363   -1.1849    0.3783 H   0  0  0  0  0  0  0  0  0  0  0  0
    3.9318   -0.5882   -1.2954 H   0  0  0  0  0  0  0  0  0  0  0  0
    4.9620    0.2538   -0.1131 H   0  0  0  0  0  0  0  0  0  0  0  0
    3.0600    1.4646    0.4373 H   0  0  0  0  0  0  0  0  0  0  0  0
    0.7636    1.7559    0.7565 H   0  0  0  0  0  0  0  0  0  0  0  0
   -0.2372   -1.6168    0.6564 H   0  0  0  0  0  0  0  0  0  0  0  0
   -2.5453   -2.4078    0.3336 H   0  0  0  0  0  0  0  0  0  0  0  0
   -4.3144   -0.8207   -0.3054 H   0  0  0  0  0  0  0  0  0  0  0  0
   -3.7815    1.5609   -0.6231 H   0  0  0  0  0  0  0  0  0  0  0  0
   -1.4776    2.3629   -0.2971 H   0  0  0  0  0  0  0  0  0  0  0  0
  1  2  1  0  0  0  0
  2  3  1  0  0  0  0
  3  4  2  0  0  0  0
  3  5  1  0  0  0  0
  5  6  1  0  0  0  0
  6  7  2  0  0  0  0
  7  8  1  0  0  0  0
  8  9  2  0  0  0  0
  9 10  1  0  0  0  0
 10 11  2  0  0  0  0
  6 11  1  0  0  0  0
  1 12  1  0  0  0  0
  1 13  1  0  0  0  0
  1 14  1  0  0  0  0
  2 15  1  0  0  0  0
  5 16  1  0  0  0  0
  7 17  1  0  0  0  0
  8 18  1  0  0  0  0
  9 19  1  0  0  0  0
 10 20  1  0  0  0  0
 11 21  1  0  0  0  0
M  END
$$$$
