C14H12
APtclcactv12091702573D 0   0.00000     0.00000
 
 26 28  0  0  0  0  0  0  0  0999 V2000
    3.1405    1.9133   -0.0013 C   0  0  0  0  0  0  0  0  0  0  0  0
    2.4359    0.5811   -0.0006 C   0  0  0  0  0  0  0  0  0  0  0  0
    3.1721   -0.5903    0.0001 C   0  0  0  0  0  0  0  0  0  0  0  0
    2.5276   -1.8144    0.0002 C   0  0  0  0  0  0  0  0  0  0  0  0
    1.1497   -1.8745   -0.0004 C   0  0  0  0  0  0  0  0  0  0  0  0
    0.4003   -0.6965   -0.0007 C   0  0  0  0  0  0  0  0  0  0  0  0
   -1.0664   -0.4710   -0.0009 C   0  0  0  0  0  0  0  0  0  0  0  0
   -2.1347   -1.3693   -0.0005 C   0  0  0  0  0  0  0  0  0  0  0  0
   -3.4313   -0.8979    0.0001 C   0  0  0  0  0  0  0  0  0  0  0  0
   -3.6781    0.4629    0.0003 C   0  0  0  0  0  0  0  0  0  0  0  0
   -2.6238    1.3593   -0.0000 C   0  0  0  0  0  0  0  0  0  0  0  0
   -1.3251    0.8972   -0.0006 C   0  0  0  0  0  0  0  0  0  0  0  0
    0.0045    1.6110   -0.0003 C   0  0  0  0  0  0  0  0  0  0  0  0
    1.0579    0.5305    0.0049 C   0  0  0  0  0  0  0  0  0  0  0  0
    3.3105    2.2339   -1.0291 H   0  0  0  0  0  0  0  0  0  0  0  0
    2.5236    2.6508    0.5121 H   0  0  0  0  0  0  0  0  0  0  0  0
    4.0970    1.8186    0.5127 H   0  0  0  0  0  0  0  0  0  0  0  0
    4.2513   -0.5490    0.0002 H   0  0  0  0  0  0  0  0  0  0  0  0
    3.1058   -2.7267    0.0005 H   0  0  0  0  0  0  0  0  0  0  0  0
    0.6506   -2.8323   -0.0010 H   0  0  0  0  0  0  0  0  0  0  0  0
   -1.9465   -2.4327   -0.0010 H   0  0  0  0  0  0  0  0  0  0  0  0
   -4.2568   -1.5942    0.0000 H   0  0  0  0  0  0  0  0  0  0  0  0
   -4.6951    0.8265    0.0005 H   0  0  0  0  0  0  0  0  0  0  0  0
   -2.8186    2.4216    0.0002 H   0  0  0  0  0  0  0  0  0  0  0  0
    0.0995    2.2278   -0.8940 H   0  0  0  0  0  0  0  0  0  0  0  0
    0.0992    2.2275    0.8936 H   0  0  0  0  0  0  0  0  0  0  0  0
  1  2  1  0  0  0  0
  2  3  2  0  0  0  0
  3  4  1  0  0  0  0
  4  5  2  0  0  0  0
  5  6  1  0  0  0  0
  6  7  1  0  0  0  0
  7  8  2  0  0  0  0
  8  9  1  0  0  0  0
  9 10  2  0  0  0  0
 10 11  1  0  0  0  0
 11 12  2  0  0  0  0
  7 12  1  0  0  0  0
 12 13  1  0  0  0  0
 13 14  1  0  0  0  0
  2 14  1  0  0  0  0
  6 14  2  0  0  0  0
  1 15  1  0  0  0  0
  1 16  1  0  0  0  0
  1 17  1  0  0  0  0
  3 18  1  0  0  0  0
  4 19  1  0  0  0  0
  5 20  1  0  0  0  0
  8 21  1  0  0  0  0
  9 22  1  0  0  0  0
 10 23  1  0  0  0  0
 11 24  1  0  0  0  0
 13 25  1  0  0  0  0
 13 26  1  0  0  0  0
M  END
$$$$
