C10H9N
APtclcactv12211717213D 0   0.00000     0.00000
 
 20 21  0  0  0  0  0  0  0  0999 V2000
   -1.3612    0.7475    0.0019 C   0  0  0  0  0  0  0  0  0  0  0  0
   -2.2908   -0.2704    0.0013 C   0  0  0  0  0  0  0  0  0  0  0  0
   -1.8874   -1.6026    0.0002 C   0  0  0  0  0  0  0  0  0  0  0  0
   -0.5679   -1.9376   -0.0007 C   0  0  0  0  0  0  0  0  0  0  0  0
    0.4122   -0.9301   -0.0005 C   0  0  0  0  0  0  0  0  0  0  0  0
    1.7814   -1.2464   -0.0009 C   0  0  0  0  0  0  0  0  0  0  0  0
    2.7041   -0.2454   -0.0004 C   0  0  0  0  0  0  0  0  0  0  0  0
    2.3118    1.0912    0.0005 C   0  0  0  0  0  0  0  0  0  0  0  0
    0.9937    1.4344    0.0010 C   0  0  0  0  0  0  0  0  0  0  0  0
    0.0144    0.4297    0.0009 C   0  0  0  0  0  0  0  0  0  0  0  0
   -1.7754    2.0777   -0.0024 N   0  0  0  0  0  0  0  0  0  0  0  0
   -3.3440   -0.0315    0.0020 H   0  0  0  0  0  0  0  0  0  0  0  0
   -2.6336   -2.3833    0.0004 H   0  0  0  0  0  0  0  0  0  0  0  0
   -0.2744   -2.9770   -0.0012 H   0  0  0  0  0  0  0  0  0  0  0  0
    2.1001   -2.2783   -0.0013 H   0  0  0  0  0  0  0  0  0  0  0  0
    3.7558   -0.4911   -0.0003 H   0  0  0  0  0  0  0  0  0  0  0  0
    3.0636    1.8666    0.0013 H   0  0  0  0  0  0  0  0  0  0  0  0
    0.7039    2.4748    0.0020 H   0  0  0  0  0  0  0  0  0  0  0  0
   -2.7216    2.2910   -0.0058 H   0  0  0  0  0  0  0  0  0  0  0  0
   -1.1175    2.7905   -0.0019 H   0  0  0  0  0  0  0  0  0  0  0  0
  1  2  2  0  0  0  0
  2  3  1  0  0  0  0
  3  4  2  0  0  0  0
  4  5  1  0  0  0  0
  5  6  2  0  0  0  0
  6  7  1  0  0  0  0
  7  8  2  0  0  0  0
  8  9  1  0  0  0  0
  9 10  2  0  0  0  0
  1 10  1  0  0  0  0
  5 10  1  0  0  0  0
  1 11  1  0  0  0  0
  2 12  1  0  0  0  0
  3 13  1  0  0  0  0
  4 14  1  0  0  0  0
  6 15  1  0  0  0  0
  7 16  1  0  0  0  0
  8 17  1  0  0  0  0
  9 18  1  0  0  0  0
 11 19  1  0  0  0  0
 11 20  1  0  0  0  0
M  END
$$$$
