C11H10N2S
APtclcactv12211717323D 0   0.00000     0.00000
 
 24 25  0  0  0  0  0  0  0  0999 V2000
   -0.2994   -0.0985   -0.4918 C   0  0  0  0  0  0  0  0  0  0  0  0
   -0.5995   -1.4375   -0.6172 C   0  0  0  0  0  0  0  0  0  0  0  0
    0.3839   -2.4070   -0.4420 C   0  0  0  0  0  0  0  0  0  0  0  0
    1.6662   -2.0614   -0.1426 C   0  0  0  0  0  0  0  0  0  0  0  0
    2.0142   -0.7064   -0.0062 C   0  0  0  0  0  0  0  0  0  0  0  0
    3.3296   -0.3201    0.3028 C   0  0  0  0  0  0  0  0  0  0  0  0
    3.6319    1.0013    0.4279 C   0  0  0  0  0  0  0  0  0  0  0  0
    2.6555    1.9797    0.2544 C   0  0  0  0  0  0  0  0  0  0  0  0
    1.3708    1.6417   -0.0456 C   0  0  0  0  0  0  0  0  0  0  0  0
    1.0221    0.2894   -0.1824 C   0  0  0  0  0  0  0  0  0  0  0  0
   -1.2918    0.8657   -0.6747 N   0  0  0  0  0  0  0  0  0  0  0  0
   -2.5068    0.6964   -0.1165 C   0  0  0  0  0  0  0  0  0  0  0  0
   -2.7909   -0.6279    0.9305 S   0  0  0  0  0  0  0  0  0  0  0  0
   -3.4982    1.5698   -0.3827 N   0  0  0  0  0  0  0  0  0  0  0  0
   -1.6095   -1.7383   -0.8539 H   0  0  0  0  0  0  0  0  0  0  0  0
    0.1253   -3.4505   -0.5448 H   0  0  0  0  0  0  0  0  0  0  0  0
    2.4154   -2.8278   -0.0095 H   0  0  0  0  0  0  0  0  0  0  0  0
    4.0966   -1.0678    0.4407 H   0  0  0  0  0  0  0  0  0  0  0  0
    4.6435    1.2955    0.6654 H   0  0  0  0  0  0  0  0  0  0  0  0
    2.9211    3.0212    0.3598 H   0  0  0  0  0  0  0  0  0  0  0  0
    0.6239    2.4107   -0.1771 H   0  0  0  0  0  0  0  0  0  0  0  0
   -1.1070    1.6576   -1.2035 H   0  0  0  0  0  0  0  0  0  0  0  0
   -3.3372    2.3202   -0.9760 H   0  0  0  0  0  0  0  0  0  0  0  0
   -4.3727    1.4480    0.0190 H   0  0  0  0  0  0  0  0  0  0  0  0
  1  2  2  0  0  0  0
  2  3  1  0  0  0  0
  3  4  2  0  0  0  0
  4  5  1  0  0  0  0
  5  6  2  0  0  0  0
  6  7  1  0  0  0  0
  7  8  2  0  0  0  0
  8  9  1  0  0  0  0
  9 10  2  0  0  0  0
  1 10  1  0  0  0  0
  5 10  1  0  0  0  0
  1 11  1  0  0  0  0
 11 12  1  0  0  0  0
 12 13  2  0  0  0  0
 12 14  1  0  0  0  0
  2 15  1  0  0  0  0
  3 16  1  0  0  0  0
  4 17  1  0  0  0  0
  6 18  1  0  0  0  0
  7 19  1  0  0  0  0
  8 20  1  0  0  0  0
  9 21  1  0  0  0  0
 11 22  1  0  0  0  0
 14 23  1  0  0  0  0
 14 24  1  0  0  0  0
M  END
$$$$
