C10H7NO2
APtclcactv12211717203D 0   0.00000     0.00000
 
 20 21  0  0  0  0  0  0  0  0999 V2000
   -2.1440    0.5581    0.0161 N   0  3  0  0  0  0  0  0  0  0  0  0
   -2.0936    1.6145    0.6204 O   0  0  0  0  0  0  0  0  0  0  0  0
   -3.1482    0.2591   -0.6049 O   0  5  0  0  0  0  0  0  0  0  0  0
   -0.9826   -0.3595    0.0315 C   0  0  0  0  0  0  0  0  0  0  0  0
   -1.1750   -1.7055    0.0870 C   0  0  0  0  0  0  0  0  0  0  0  0
   -0.0939   -2.5851    0.1028 C   0  0  0  0  0  0  0  0  0  0  0  0
    1.1857   -2.1235    0.0628 C   0  0  0  0  0  0  0  0  0  0  0  0
    1.4242   -0.7396    0.0046 C   0  0  0  0  0  0  0  0  0  0  0  0
    2.7311   -0.2255   -0.0375 C   0  0  0  0  0  0  0  0  0  0  0  0
    2.9237    1.1209   -0.0931 C   0  0  0  0  0  0  0  0  0  0  0  0
    1.8429    2.0002   -0.1086 C   0  0  0  0  0  0  0  0  0  0  0  0
    0.5630    1.5383   -0.0685 C   0  0  0  0  0  0  0  0  0  0  0  0
    0.3246    0.1546   -0.0170 C   0  0  0  0  0  0  0  0  0  0  0  0
   -2.1806   -2.0982    0.1197 H   0  0  0  0  0  0  0  0  0  0  0  0
   -0.2744   -3.6490    0.1479 H   0  0  0  0  0  0  0  0  0  0  0  0
    2.0136   -2.8169    0.0760 H   0  0  0  0  0  0  0  0  0  0  0  0
    3.5784   -0.8950   -0.0254 H   0  0  0  0  0  0  0  0  0  0  0  0
    3.9293    1.5135   -0.1254 H   0  0  0  0  0  0  0  0  0  0  0  0
    2.0234    3.0641   -0.1527 H   0  0  0  0  0  0  0  0  0  0  0  0
   -0.2649    2.2317   -0.0804 H   0  0  0  0  0  0  0  0  0  0  0  0
  1  2  2  0  0  0  0
  1  3  1  0  0  0  0
  1  4  1  0  0  0  0
  4  5  2  0  0  0  0
  5  6  1  0  0  0  0
  6  7  2  0  0  0  0
  7  8  1  0  0  0  0
  8  9  2  0  0  0  0
  9 10  1  0  0  0  0
 10 11  2  0  0  0  0
 11 12  1  0  0  0  0
 12 13  2  0  0  0  0
  4 13  1  0  0  0  0
  8 13  1  0  0  0  0
  5 14  1  0  0  0  0
  6 15  1  0  0  0  0
  7 16  1  0  0  0  0
  9 17  1  0  0  0  0
 10 18  1  0  0  0  0
 11 19  1  0  0  0  0
 12 20  1  0  0  0  0
M  CHG  2   1   1   3  -1
M  END
$$$$
