C10H7NO3
APtclcactv12211717203D 0   0.00000     0.00000
 
 21 22  0  0  0  0  0  0  0  0999 V2000
    1.7318    1.1406   -0.0072 N   0  3  0  0  0  0  0  0  0  0  0  0
    2.1145    1.6150   -1.0617 O   0  0  0  0  0  0  0  0  0  0  0  0
    2.1184    1.6106    1.0479 O   0  5  0  0  0  0  0  0  0  0  0  0
    0.7921   -0.0032   -0.0078 C   0  0  0  0  0  0  0  0  0  0  0  0
    1.2683   -1.2832   -0.0142 C   0  0  0  0  0  0  0  0  0  0  0  0
    0.3934   -2.3743   -0.0149 C   0  0  0  0  0  0  0  0  0  0  0  0
   -0.9539   -2.1900   -0.0094 C   0  0  0  0  0  0  0  0  0  0  0  0
   -1.4793   -0.8859   -0.0028 C   0  0  0  0  0  0  0  0  0  0  0  0
   -2.8657   -0.6594    0.0030 C   0  0  0  0  0  0  0  0  0  0  0  0
   -3.3400    0.6167    0.0094 C   0  0  0  0  0  0  0  0  0  0  0  0
   -2.4705    1.7054    0.0099 C   0  0  0  0  0  0  0  0  0  0  0  0
   -1.1214    1.5245    0.0043 C   0  0  0  0  0  0  0  0  0  0  0  0
   -0.5943    0.2217    0.0039 C   0  0  0  0  0  0  0  0  0  0  0  0
    2.6098   -1.4994   -0.0204 O   0  0  0  0  0  0  0  0  0  0  0  0
    0.7935   -3.3774   -0.0204 H   0  0  0  0  0  0  0  0  0  0  0  0
   -1.6176   -3.0420   -0.0104 H   0  0  0  0  0  0  0  0  0  0  0  0
   -3.5519   -1.4934    0.0020 H   0  0  0  0  0  0  0  0  0  0  0  0
   -4.4064    0.7877    0.0139 H   0  0  0  0  0  0  0  0  0  0  0  0
   -2.8729    2.7076    0.0143 H   0  0  0  0  0  0  0  0  0  0  0  0
   -0.4593    2.3779    0.0044 H   0  0  0  0  0  0  0  0  0  0  0  0
    3.0017   -1.5651    0.8612 H   0  0  0  0  0  0  0  0  0  0  0  0
  1  2  2  0  0  0  0
  1  3  1  0  0  0  0
  1  4  1  0  0  0  0
  4  5  2  0  0  0  0
  5  6  1  0  0  0  0
  6  7  2  0  0  0  0
  7  8  1  0  0  0  0
  8  9  2  0  0  0  0
  9 10  1  0  0  0  0
 10 11  2  0  0  0  0
 11 12  1  0  0  0  0
 12 13  2  0  0  0  0
  4 13  1  0  0  0  0
  8 13  1  0  0  0  0
  5 14  1  0  0  0  0
  6 15  1  0  0  0  0
  7 16  1  0  0  0  0
  9 17  1  0  0  0  0
 10 18  1  0  0  0  0
 11 19  1  0  0  0  0
 12 20  1  0  0  0  0
 14 21  1  0  0  0  0
M  CHG  2   1   1   3  -1
M  END
$$$$
