C4H9NO2
APtclcactv12211716403D 0   0.00000     0.00000
 
 16 15  0  0  0  0  0  0  0  0999 V2000
    1.5766   -0.0067   -0.0354 N   0  3  0  0  0  0  0  0  0  0  0  0
    1.7057   -1.2091   -0.1813 O   0  0  0  0  0  0  0  0  0  0  0  0
    2.4979    0.6554    0.4077 O   0  5  0  0  0  0  0  0  0  0  0  0
    0.3153    0.6440   -0.3985 C   0  0  0  0  0  0  0  0  0  0  0  0
   -0.8569   -0.1830    0.1336 C   0  0  0  0  0  0  0  0  0  0  0  0
   -2.1742    0.4966   -0.2456 C   0  0  0  0  0  0  0  0  0  0  0  0
   -3.3463   -0.3303    0.2865 C   0  0  0  0  0  0  0  0  0  0  0  0
    0.2829    1.6425    0.0373 H   0  0  0  0  0  0  0  0  0  0  0  0
    0.2442    0.7186   -1.4837 H   0  0  0  0  0  0  0  0  0  0  0  0
   -0.8245   -1.1815   -0.3022 H   0  0  0  0  0  0  0  0  0  0  0  0
   -0.7858   -0.2576    1.2187 H   0  0  0  0  0  0  0  0  0  0  0  0
   -2.2065    1.4952    0.1902 H   0  0  0  0  0  0  0  0  0  0  0  0
   -2.2452    0.5713   -1.3308 H   0  0  0  0  0  0  0  0  0  0  0  0
   -4.2848    0.1538    0.0163 H   0  0  0  0  0  0  0  0  0  0  0  0
   -3.3140   -1.3289   -0.1493 H   0  0  0  0  0  0  0  0  0  0  0  0
   -3.2752   -0.4050    1.3716 H   0  0  0  0  0  0  0  0  0  0  0  0
  1  2  2  0  0  0  0
  1  3  1  0  0  0  0
  1  4  1  0  0  0  0
  4  5  1  0  0  0  0
  5  6  1  0  0  0  0
  6  7  1  0  0  0  0
  4  8  1  0  0  0  0
  4  9  1  0  0  0  0
  5 10  1  0  0  0  0
  5 11  1  0  0  0  0
  6 12  1  0  0  0  0
  6 13  1  0  0  0  0
  7 14  1  0  0  0  0
  7 15  1  0  0  0  0
  7 16  1  0  0  0  0
M  CHG  2   1   1   3  -1
M  END
$$$$
