C9H16
APtclcactv12151716503D 0   0.00000     0.00000
 
 25 24  0  0  0  0  0  0  0  0999 V2000
   -4.9053    0.5893   -0.0000 C   0  0  0  0  0  0  0  0  0  0  0  0
   -3.8948   -0.0083   -0.0000 C   0  0  0  0  0  0  0  0  0  0  0  0
   -2.6278   -0.7576    0.0000 C   0  0  0  0  0  0  0  0  0  0  0  0
   -1.4545    0.2245    0.0000 C   0  0  0  0  0  0  0  0  0  0  0  0
   -0.1376   -0.5543    0.0000 C   0  0  0  0  0  0  0  0  0  0  0  0
    1.0357    0.4277    0.0000 C   0  0  0  0  0  0  0  0  0  0  0  0
    2.3526   -0.3511   -0.0000 C   0  0  0  0  0  0  0  0  0  0  0  0
    3.5259    0.6309    0.0000 C   0  0  0  0  0  0  0  0  0  0  0  0
    4.8428   -0.1479   -0.0000 C   0  0  0  0  0  0  0  0  0  0  0  0
   -5.8091    1.1238   -0.0000 H   0  0  0  0  0  0  0  0  0  0  0  0
   -2.5766   -1.3848    0.8900 H   0  0  0  0  0  0  0  0  0  0  0  0
   -2.5766   -1.3848   -0.8900 H   0  0  0  0  0  0  0  0  0  0  0  0
   -1.5057    0.8517   -0.8900 H   0  0  0  0  0  0  0  0  0  0  0  0
   -1.5057    0.8517    0.8900 H   0  0  0  0  0  0  0  0  0  0  0  0
   -0.0864   -1.1816    0.8900 H   0  0  0  0  0  0  0  0  0  0  0  0
   -0.0864   -1.1816   -0.8900 H   0  0  0  0  0  0  0  0  0  0  0  0
    0.9845    1.0549   -0.8900 H   0  0  0  0  0  0  0  0  0  0  0  0
    0.9845    1.0549    0.8900 H   0  0  0  0  0  0  0  0  0  0  0  0
    2.4038   -0.9783    0.8900 H   0  0  0  0  0  0  0  0  0  0  0  0
    2.4038   -0.9783   -0.8900 H   0  0  0  0  0  0  0  0  0  0  0  0
    3.4747    1.2582   -0.8900 H   0  0  0  0  0  0  0  0  0  0  0  0
    3.4747    1.2582    0.8900 H   0  0  0  0  0  0  0  0  0  0  0  0
    5.6787    0.5518    0.0000 H   0  0  0  0  0  0  0  0  0  0  0  0
    4.8940   -0.7751    0.8900 H   0  0  0  0  0  0  0  0  0  0  0  0
    4.8940   -0.7751   -0.8900 H   0  0  0  0  0  0  0  0  0  0  0  0
  1  2  3  0  0  0  0
  2  3  1  0  0  0  0
  3  4  1  0  0  0  0
  4  5  1  0  0  0  0
  5  6  1  0  0  0  0
  6  7  1  0  0  0  0
  7  8  1  0  0  0  0
  8  9  1  0  0  0  0
  1 10  1  0  0  0  0
  3 11  1  0  0  0  0
  3 12  1  0  0  0  0
  4 13  1  0  0  0  0
  4 14  1  0  0  0  0
  5 15  1  0  0  0  0
  5 16  1  0  0  0  0
  6 17  1  0  0  0  0
  6 18  1  0  0  0  0
  7 19  1  0  0  0  0
  7 20  1  0  0  0  0
  8 21  1  0  0  0  0
  8 22  1  0  0  0  0
  9 23  1  0  0  0  0
  9 24  1  0  0  0  0
  9 25  1  0  0  0  0
M  END
$$$$
