C17H14N2O
APtclcactv12211717363D 0   0.00000     0.00000
 
 34 36  0  0  0  0  0  0  0  0999 V2000
    3.6939   -0.5519   -0.0066 C   0  0  0  0  0  0  0  0  0  0  0  0
    2.5153    0.1990   -0.0034 C   0  0  0  0  0  0  0  0  0  0  0  0
    2.5842    1.5952    0.0018 C   0  0  0  0  0  0  0  0  0  0  0  0
    3.8127    2.2213    0.0037 C   0  0  0  0  0  0  0  0  0  0  0  0
    4.9758    1.4709    0.0000 C   0  0  0  0  0  0  0  0  0  0  0  0
    4.9155    0.0885   -0.0046 C   0  0  0  0  0  0  0  0  0  0  0  0
    1.3013   -0.4285   -0.0058 N   0  0  0  0  0  0  0  0  0  0  0  0
    0.2153    0.2677   -0.0028 N   0  0  0  0  0  0  0  0  0  0  0  0
   -0.9917   -0.3563   -0.0052 C   0  0  0  0  0  0  0  0  0  0  0  0
   -1.0747   -1.7511   -0.0108 C   0  0  0  0  0  0  0  0  0  0  0  0
   -2.3173   -2.3839   -0.0127 C   0  0  0  0  0  0  0  0  0  0  0  0
   -3.4794   -1.6797   -0.0097 C   0  0  0  0  0  0  0  0  0  0  0  0
   -3.4699   -0.2728   -0.0045 C   0  0  0  0  0  0  0  0  0  0  0  0
   -4.6659    0.4637   -0.0014 C   0  0  0  0  0  0  0  0  0  0  0  0
   -4.6190    1.8253    0.0041 C   0  0  0  0  0  0  0  0  0  0  0  0
   -3.4018    2.5004    0.0068 C   0  0  0  0  0  0  0  0  0  0  0  0
   -2.2217    1.8162    0.0034 C   0  0  0  0  0  0  0  0  0  0  0  0
   -2.2334    0.4173    0.0043 C   0  0  0  0  0  0  0  0  0  0  0  0
    0.0604   -2.4940   -0.0149 O   0  0  0  0  0  0  0  0  0  0  0  0
    3.6303   -2.0575   -0.0059 C   0  0  0  0  0  0  0  0  0  0  0  0
    1.6775    2.1820    0.0039 H   0  0  0  0  0  0  0  0  0  0  0  0
    3.8675    3.2999    0.0077 H   0  0  0  0  0  0  0  0  0  0  0  0
    5.9352    1.9669    0.0012 H   0  0  0  0  0  0  0  0  0  0  0  0
    5.8272   -0.4904   -0.0075 H   0  0  0  0  0  0  0  0  0  0  0  0
   -2.3571   -3.4631   -0.0171 H   0  0  0  0  0  0  0  0  0  0  0  0
   -4.4222   -2.2065   -0.0117 H   0  0  0  0  0  0  0  0  0  0  0  0
   -5.6177   -0.0467   -0.0038 H   0  0  0  0  0  0  0  0  0  0  0  0
   -5.5401    2.3892    0.0062 H   0  0  0  0  0  0  0  0  0  0  0  0
   -3.3915    3.5804    0.0112 H   0  0  0  0  0  0  0  0  0  0  0  0
   -1.2837    2.3514    0.0048 H   0  0  0  0  0  0  0  0  0  0  0  0
    0.3903   -2.7131    0.8673 H   0  0  0  0  0  0  0  0  0  0  0  0
    3.6120   -2.4209   -1.0334 H   0  0  0  0  0  0  0  0  0  0  0  0
    4.5057   -2.4579    0.5055 H   0  0  0  0  0  0  0  0  0  0  0  0
    2.7273   -2.3828    0.5106 H   0  0  0  0  0  0  0  0  0  0  0  0
  1  2  2  0  0  0  0
  2  3  1  0  0  0  0
  3  4  2  0  0  0  0
  4  5  1  0  0  0  0
  5  6  2  0  0  0  0
  1  6  1  0  0  0  0
  2  7  1  0  0  0  0
  7  8  2  0  0  0  0
  8  9  1  0  0  0  0
  9 10  2  0  0  0  0
 10 11  1  0  0  0  0
 11 12  2  0  0  0  0
 12 13  1  0  0  0  0
 13 14  2  0  0  0  0
 14 15  1  0  0  0  0
 15 16  2  0  0  0  0
 16 17  1  0  0  0  0
 17 18  2  0  0  0  0
  9 18  1  0  0  0  0
 13 18  1  0  0  0  0
 10 19  1  0  0  0  0
  1 20  1  0  0  0  0
  3 21  1  0  0  0  0
  4 22  1  0  0  0  0
  5 23  1  0  0  0  0
  6 24  1  0  0  0  0
 11 25  1  0  0  0  0
 12 26  1  0  0  0  0
 14 27  1  0  0  0  0
 15 28  1  0  0  0  0
 16 29  1  0  0  0  0
 17 30  1  0  0  0  0
 19 31  1  0  0  0  0
 20 32  1  0  0  0  0
 20 33  1  0  0  0  0
 20 34  1  0  0  0  0
M  END
$$$$
