C8H14
APtclcactv12151716343D 0   0.00000     0.00000
 
 22 21  0  0  0  0  0  0  0  0999 V2000
   -4.2658    0.6413   -0.0000 C   0  0  0  0  0  0  0  0  0  0  0  0
   -3.2664    0.0254    0.0000 C   0  0  0  0  0  0  0  0  0  0  0  0
   -2.0132   -0.7469    0.0000 C   0  0  0  0  0  0  0  0  0  0  0  0
   -0.8223    0.2136    0.0000 C   0  0  0  0  0  0  0  0  0  0  0  0
    0.4803   -0.5891   -0.0000 C   0  0  0  0  0  0  0  0  0  0  0  0
    1.6712    0.3713    0.0000 C   0  0  0  0  0  0  0  0  0  0  0  0
    2.9737   -0.4314   -0.0000 C   0  0  0  0  0  0  0  0  0  0  0  0
    4.1647    0.5291    0.0000 C   0  0  0  0  0  0  0  0  0  0  0  0
   -5.1597    1.1922   -0.0000 H   0  0  0  0  0  0  0  0  0  0  0  0
   -1.9735   -1.3750    0.8900 H   0  0  0  0  0  0  0  0  0  0  0  0
   -1.9735   -1.3750   -0.8900 H   0  0  0  0  0  0  0  0  0  0  0  0
   -0.8620    0.8416   -0.8900 H   0  0  0  0  0  0  0  0  0  0  0  0
   -0.8620    0.8416    0.8900 H   0  0  0  0  0  0  0  0  0  0  0  0
    0.5200   -1.2172    0.8900 H   0  0  0  0  0  0  0  0  0  0  0  0
    0.5200   -1.2172   -0.8900 H   0  0  0  0  0  0  0  0  0  0  0  0
    1.6315    0.9994   -0.8900 H   0  0  0  0  0  0  0  0  0  0  0  0
    1.6315    0.9994    0.8900 H   0  0  0  0  0  0  0  0  0  0  0  0
    3.0135   -1.0594    0.8900 H   0  0  0  0  0  0  0  0  0  0  0  0
    3.0135   -1.0594   -0.8900 H   0  0  0  0  0  0  0  0  0  0  0  0
    5.0927   -0.0428   -0.0000 H   0  0  0  0  0  0  0  0  0  0  0  0
    4.1250    1.1572   -0.8900 H   0  0  0  0  0  0  0  0  0  0  0  0
    4.1250    1.1572    0.8900 H   0  0  0  0  0  0  0  0  0  0  0  0
  1  2  3  0  0  0  0
  2  3  1  0  0  0  0
  3  4  1  0  0  0  0
  4  5  1  0  0  0  0
  5  6  1  0  0  0  0
  6  7  1  0  0  0  0
  7  8  1  0  0  0  0
  1  9  1  0  0  0  0
  3 10  1  0  0  0  0
  3 11  1  0  0  0  0
  4 12  1  0  0  0  0
  4 13  1  0  0  0  0
  5 14  1  0  0  0  0
  5 15  1  0  0  0  0
  6 16  1  0  0  0  0
  6 17  1  0  0  0  0
  7 18  1  0  0  0  0
  7 19  1  0  0  0  0
  8 20  1  0  0  0  0
  8 21  1  0  0  0  0
  8 22  1  0  0  0  0
M  END
$$$$
