C5H8
APtclcactv12211716433D 0   0.00000     0.00000
 
 13 12  0  0  0  0  0  0  0  0999 V2000
   -2.5001    0.2560   -0.0000 C   0  0  0  0  0  0  0  0  0  0  0  0
   -1.3970   -0.1459   -0.0000 C   0  0  0  0  0  0  0  0  0  0  0  0
   -0.0140   -0.6499    0.0000 C   0  0  0  0  0  0  0  0  0  0  0  0
    0.9591    0.5308    0.0000 C   0  0  0  0  0  0  0  0  0  0  0  0
    2.3966    0.0070   -0.0000 C   0  0  0  0  0  0  0  0  0  0  0  0
   -3.4866    0.6155   -0.0000 H   0  0  0  0  0  0  0  0  0  0  0  0
    0.1515   -1.2571    0.8900 H   0  0  0  0  0  0  0  0  0  0  0  0
    0.1515   -1.2571   -0.8900 H   0  0  0  0  0  0  0  0  0  0  0  0
    0.7936    1.1380   -0.8900 H   0  0  0  0  0  0  0  0  0  0  0  0
    0.7936    1.1380    0.8900 H   0  0  0  0  0  0  0  0  0  0  0  0
    2.5621   -0.6002    0.8900 H   0  0  0  0  0  0  0  0  0  0  0  0
    2.5621   -0.6002   -0.8900 H   0  0  0  0  0  0  0  0  0  0  0  0
    3.0898    0.8481   -0.0000 H   0  0  0  0  0  0  0  0  0  0  0  0
  1  2  3  0  0  0  0
  2  3  1  0  0  0  0
  3  4  1  0  0  0  0
  4  5  1  0  0  0  0
  1  6  1  0  0  0  0
  3  7  1  0  0  0  0
  3  8  1  0  0  0  0
  4  9  1  0  0  0  0
  4 10  1  0  0  0  0
  5 11  1  0  0  0  0
  5 12  1  0  0  0  0
  5 13  1  0  0  0  0
M  END
$$$$
