C10H13FN2O4
APtclcactv12211717253D 0   0.00000     0.00000
 
 30 30  0  0  0  0  0  0  0  0999 V2000
   -2.0834   -0.0233   -0.3945 C   0  0  0  0  0  0  0  0  0  0  0  0
   -3.2723    0.3353    0.4594 C   0  0  0  0  0  0  0  0  0  0  0  0
   -3.7780    1.7262    0.0713 C   0  0  0  0  0  0  0  0  0  0  0  0
   -4.3854   -0.6914    0.2407 C   0  0  0  0  0  0  0  0  0  0  0  0
   -2.8605    0.3351    1.9329 C   0  0  0  0  0  0  0  0  0  0  0  0
   -1.6817    0.7539   -1.2279 O   0  0  0  0  0  0  0  0  0  0  0  0
   -1.4672   -1.2037   -0.2254 O   0  0  0  0  0  0  0  0  0  0  0  0
   -0.3289   -1.4820   -1.0828 C   0  0  0  0  0  0  0  0  0  0  0  0
    0.8558   -0.7976   -0.5591 N   0  0  0  0  0  0  0  0  0  0  0  0
    1.8081   -1.5051    0.0755 C   0  0  0  0  0  0  0  0  0  0  0  0
    2.9067   -0.9024    0.5666 N   0  0  0  0  0  0  0  0  0  0  0  0
    3.0714    0.4287    0.4289 C   0  0  0  0  0  0  0  0  0  0  0  0
    2.0769    1.1875   -0.2377 C   0  0  0  0  0  0  0  0  0  0  0  0
    0.9866    0.5568   -0.7251 C   0  0  0  0  0  0  0  0  0  0  0  0
    2.2198    2.5225   -0.3873 F   0  0  0  0  0  0  0  0  0  0  0  0
    4.0653    0.9742    0.8737 O   0  0  0  0  0  0  0  0  0  0  0  0
    1.6740   -2.7064    0.2077 O   0  0  0  0  0  0  0  0  0  0  0  0
   -4.0713    1.7263   -0.9785 H   0  0  0  0  0  0  0  0  0  0  0  0
   -4.6379    1.9855    0.6889 H   0  0  0  0  0  0  0  0  0  0  0  0
   -2.9850    2.4576    0.2271 H   0  0  0  0  0  0  0  0  0  0  0  0
   -4.0251   -1.6823    0.5172 H   0  0  0  0  0  0  0  0  0  0  0  0
   -5.2453   -0.4321    0.8583 H   0  0  0  0  0  0  0  0  0  0  0  0
   -4.6787   -0.6913   -0.8091 H   0  0  0  0  0  0  0  0  0  0  0  0
   -2.0675    1.0665    2.0887 H   0  0  0  0  0  0  0  0  0  0  0  0
   -3.7205    0.5944    2.5505 H   0  0  0  0  0  0  0  0  0  0  0  0
   -2.5003   -0.6558    2.2094 H   0  0  0  0  0  0  0  0  0  0  0  0
   -0.1467   -2.5563   -1.1075 H   0  0  0  0  0  0  0  0  0  0  0  0
   -0.5382   -1.1256   -2.0915 H   0  0  0  0  0  0  0  0  0  0  0  0
    3.5830   -1.4280    1.0220 H   0  0  0  0  0  0  0  0  0  0  0  0
    0.2180    1.1178   -1.2360 H   0  0  0  0  0  0  0  0  0  0  0  0
  1  2  1  0  0  0  0
  2  3  1  0  0  0  0
  2  4  1  0  0  0  0
  2  5  1  0  0  0  0
  1  6  2  0  0  0  0
  1  7  1  0  0  0  0
  7  8  1  0  0  0  0
  8  9  1  0  0  0  0
  9 10  1  0  0  0  0
 10 11  1  0  0  0  0
 11 12  1  0  0  0  0
 12 13  1  0  0  0  0
 13 14  2  0  0  0  0
  9 14  1  0  0  0  0
 13 15  1  0  0  0  0
 12 16  2  0  0  0  0
 10 17  2  0  0  0  0
  3 18  1  0  0  0  0
  3 19  1  0  0  0  0
  3 20  1  0  0  0  0
  4 21  1  0  0  0  0
  4 22  1  0  0  0  0
  4 23  1  0  0  0  0
  5 24  1  0  0  0  0
  5 25  1  0  0  0  0
  5 26  1  0  0  0  0
  8 27  1  0  0  0  0
  8 28  1  0  0  0  0
 11 29  1  0  0  0  0
 14 30  1  0  0  0  0
M  END
$$$$
