C10H14N4O2
APtclcactv12211717263D 0   0.00000     0.00000
 
 30 31  0  0  0  0  0  0  0  0999 V2000
   -2.4648    0.4410   -0.5818 C   0  0  0  0  0  0  0  0  0  0  0  0
   -3.1551    0.6882    0.7610 C   0  0  0  0  0  0  0  0  0  0  0  0
   -4.5990    1.1322    0.5181 C   0  0  0  0  0  0  0  0  0  0  0  0
   -1.0822    0.0158   -0.3492 N   0  0  0  0  0  0  0  0  0  0  0  0
   -0.8054   -1.2929   -0.2173 C   0  0  0  0  0  0  0  0  0  0  0  0
   -1.7109   -2.1009   -0.2940 O   0  0  0  0  0  0  0  0  0  0  0  0
    0.4493   -1.7318   -0.0030 N   0  0  0  0  0  0  0  0  0  0  0  0
    0.7084   -3.1671    0.1351 C   0  0  0  0  0  0  0  0  0  0  0  0
    1.4958   -0.8282    0.0868 C   0  0  0  0  0  0  0  0  0  0  0  0
    2.8103   -0.9506    0.2877 N   0  0  0  0  0  0  0  0  0  0  0  0
    3.3710    0.2319    0.2873 C   0  0  0  0  0  0  0  0  0  0  0  0
    2.4343    1.1789    0.0841 N   0  0  0  0  0  0  0  0  0  0  0  0
    2.6577    2.6251    0.0158 C   0  0  0  0  0  0  0  0  0  0  0  0
    1.2242    0.5276   -0.0476 C   0  0  0  0  0  0  0  0  0  0  0  0
   -0.1051    0.9435   -0.2761 C   0  0  0  0  0  0  0  0  0  0  0  0
   -0.3675    2.1260   -0.4031 O   0  0  0  0  0  0  0  0  0  0  0  0
   -2.9978   -0.3384   -1.1263 H   0  0  0  0  0  0  0  0  0  0  0  0
   -2.4686    1.3605   -1.1670 H   0  0  0  0  0  0  0  0  0  0  0  0
   -3.1513   -0.2314    1.3462 H   0  0  0  0  0  0  0  0  0  0  0  0
   -2.6221    1.4676    1.3055 H   0  0  0  0  0  0  0  0  0  0  0  0
   -5.0908    1.3083    1.4747 H   0  0  0  0  0  0  0  0  0  0  0  0
   -4.6028    2.0517   -0.0671 H   0  0  0  0  0  0  0  0  0  0  0  0
   -5.1320    0.3528   -0.0264 H   0  0  0  0  0  0  0  0  0  0  0  0
   -0.2278   -3.7165    0.0364 H   0  0  0  0  0  0  0  0  0  0  0  0
    1.4016   -3.4876   -0.6426 H   0  0  0  0  0  0  0  0  0  0  0  0
    1.1443   -3.3650    1.1144 H   0  0  0  0  0  0  0  0  0  0  0  0
    4.4250    0.4203    0.4288 H   0  0  0  0  0  0  0  0  0  0  0  0
    2.8620    2.9130   -1.0154 H   0  0  0  0  0  0  0  0  0  0  0  0
    1.7685    3.1471    0.3694 H   0  0  0  0  0  0  0  0  0  0  0  0
    3.5087    2.8913    0.6428 H   0  0  0  0  0  0  0  0  0  0  0  0
  1  2  1  0  0  0  0
  2  3  1  0  0  0  0
  1  4  1  0  0  0  0
  4  5  1  0  0  0  0
  5  6  2  0  0  0  0
  5  7  1  0  0  0  0
  7  8  1  0  0  0  0
  7  9  1  0  0  0  0
  9 10  1  0  0  0  0
 10 11  2  0  0  0  0
 11 12  1  0  0  0  0
 12 13  1  0  0  0  0
 12 14  1  0  0  0  0
  9 14  2  0  0  0  0
 14 15  1  0  0  0  0
  4 15  1  0  0  0  0
 15 16  2  0  0  0  0
  1 17  1  0  0  0  0
  1 18  1  0  0  0  0
  2 19  1  0  0  0  0
  2 20  1  0  0  0  0
  3 21  1  0  0  0  0
  3 22  1  0  0  0  0
  3 23  1  0  0  0  0
  8 24  1  0  0  0  0
  8 25  1  0  0  0  0
  8 26  1  0  0  0  0
 11 27  1  0  0  0  0
 13 28  1  0  0  0  0
 13 29  1  0  0  0  0
 13 30  1  0  0  0  0
M  END
$$$$
