C8H9FN2O4
APtclcactv12151716303D 0   0.00000     0.00000
 
 24 24  0  0  0  0  0  0  0  0999 V2000
   -2.5634   -0.1723   -0.0012 C   0  0  0  0  0  0  0  0  0  0  0  0
   -3.6801    0.1275    0.9653 C   0  0  0  0  0  0  0  0  0  0  0  0
   -4.2859    1.4935    0.6367 C   0  0  0  0  0  0  0  0  0  0  0  0
   -2.2810    0.6247   -0.8643 O   0  0  0  0  0  0  0  0  0  0  0  0
   -1.8788   -1.3225    0.1001 O   0  0  0  0  0  0  0  0  0  0  0  0
   -0.8165   -1.5445   -0.8646 C   0  0  0  0  0  0  0  0  0  0  0  0
    0.3795   -0.8056   -0.4527 N   0  0  0  0  0  0  0  0  0  0  0  0
    1.4208   -1.4682    0.0828 C   0  0  0  0  0  0  0  0  0  0  0  0
    1.3573   -2.6749    0.2186 O   0  0  0  0  0  0  0  0  0  0  0  0
    2.5320   -0.8149    0.4699 N   0  0  0  0  0  0  0  0  0  0  0  0
    2.6193    0.5229    0.3266 C   0  0  0  0  0  0  0  0  0  0  0  0
    3.6248    1.1142    0.6769 O   0  0  0  0  0  0  0  0  0  0  0  0
    1.5304    1.2349   -0.2360 C   0  0  0  0  0  0  0  0  0  0  0  0
    0.4296    0.5538   -0.6216 C   0  0  0  0  0  0  0  0  0  0  0  0
    1.5947    2.5756   -0.3891 F   0  0  0  0  0  0  0  0  0  0  0  0
   -4.4490   -0.6405    0.8817 H   0  0  0  0  0  0  0  0  0  0  0  0
   -3.2873    0.1393    1.9820 H   0  0  0  0  0  0  0  0  0  0  0  0
   -3.5170    2.2616    0.7203 H   0  0  0  0  0  0  0  0  0  0  0  0
   -4.6786    1.4818   -0.3800 H   0  0  0  0  0  0  0  0  0  0  0  0
   -5.0936    1.7104    1.3358 H   0  0  0  0  0  0  0  0  0  0  0  0
   -0.5870   -2.6090   -0.9137 H   0  0  0  0  0  0  0  0  0  0  0  0
   -1.1385   -1.1966   -1.8461 H   0  0  0  0  0  0  0  0  0  0  0  0
    3.2733   -1.3087    0.8541 H   0  0  0  0  0  0  0  0  0  0  0  0
   -0.4103    1.0786   -1.0523 H   0  0  0  0  0  0  0  0  0  0  0  0
  1  2  1  0  0  0  0
  2  3  1  0  0  0  0
  1  4  2  0  0  0  0
  1  5  1  0  0  0  0
  5  6  1  0  0  0  0
  6  7  1  0  0  0  0
  7  8  1  0  0  0  0
  8  9  2  0  0  0  0
  8 10  1  0  0  0  0
 10 11  1  0  0  0  0
 11 12  2  0  0  0  0
 11 13  1  0  0  0  0
 13 14  2  0  0  0  0
  7 14  1  0  0  0  0
 13 15  1  0  0  0  0
  2 16  1  0  0  0  0
  2 17  1  0  0  0  0
  3 18  1  0  0  0  0
  3 19  1  0  0  0  0
  3 20  1  0  0  0  0
  6 21  1  0  0  0  0
  6 22  1  0  0  0  0
 10 23  1  0  0  0  0
 14 24  1  0  0  0  0
M  END
$$$$
