C11H23NO2
APtclcactv12111704493D 0   0.00000     0.00000
 
 37 36  0  0  0  0  0  0  0  0999 V2000
    7.9180    0.2291   -0.0166 N   0  0  0  0  0  0  0  0  0  0  0  0
    6.6881   -0.5742   -0.0071 C   0  0  0  0  0  0  0  0  0  0  0  0
    5.4722    0.3545   -0.0146 C   0  0  0  0  0  0  0  0  0  0  0  0
    4.1913   -0.4822   -0.0047 C   0  0  0  0  0  0  0  0  0  0  0  0
    2.9755    0.4465   -0.0122 C   0  0  0  0  0  0  0  0  0  0  0  0
    1.6945   -0.3902   -0.0023 C   0  0  0  0  0  0  0  0  0  0  0  0
    0.4787    0.5386   -0.0098 C   0  0  0  0  0  0  0  0  0  0  0  0
   -0.8022   -0.2981    0.0001 C   0  0  0  0  0  0  0  0  0  0  0  0
   -2.0181    0.6306   -0.0074 C   0  0  0  0  0  0  0  0  0  0  0  0
   -3.2990   -0.2061    0.0025 C   0  0  0  0  0  0  0  0  0  0  0  0
   -4.5149    0.7226   -0.0050 C   0  0  0  0  0  0  0  0  0  0  0  0
   -5.7766   -0.1015    0.0047 C   0  0  0  0  0  0  0  0  0  0  0  0
   -5.7101   -1.3078    0.0164 O   0  0  0  0  0  0  0  0  0  0  0  0
   -6.9742    0.5047    0.0004 O   0  0  0  0  0  0  0  0  0  0  0  0
    7.9340    0.8749    0.7584 H   0  0  0  0  0  0  0  0  0  0  0  0
    8.7358   -0.3618   -0.0119 H   0  0  0  0  0  0  0  0  0  0  0  0
    6.6638   -1.2118   -0.8909 H   0  0  0  0  0  0  0  0  0  0  0  0
    6.6661   -1.1944    0.8890 H   0  0  0  0  0  0  0  0  0  0  0  0
    5.4966    0.9921    0.8691 H   0  0  0  0  0  0  0  0  0  0  0  0
    5.4942    0.9746   -0.9107 H   0  0  0  0  0  0  0  0  0  0  0  0
    4.1670   -1.1198   -0.8885 H   0  0  0  0  0  0  0  0  0  0  0  0
    4.1693   -1.1023    0.8914 H   0  0  0  0  0  0  0  0  0  0  0  0
    2.9998    1.0841    0.8715 H   0  0  0  0  0  0  0  0  0  0  0  0
    2.9975    1.0667   -0.9083 H   0  0  0  0  0  0  0  0  0  0  0  0
    1.6702   -1.0277   -0.8861 H   0  0  0  0  0  0  0  0  0  0  0  0
    1.6725   -1.0103    0.8938 H   0  0  0  0  0  0  0  0  0  0  0  0
    0.5030    1.1761    0.8739 H   0  0  0  0  0  0  0  0  0  0  0  0
    0.5007    1.1587   -0.9059 H   0  0  0  0  0  0  0  0  0  0  0  0
   -0.8266   -0.9357   -0.8837 H   0  0  0  0  0  0  0  0  0  0  0  0
   -0.8242   -0.9183    0.8962 H   0  0  0  0  0  0  0  0  0  0  0  0
   -1.9938    1.2682    0.8763 H   0  0  0  0  0  0  0  0  0  0  0  0
   -1.9961    1.2507   -0.9035 H   0  0  0  0  0  0  0  0  0  0  0  0
   -3.3234   -0.8436   -0.8813 H   0  0  0  0  0  0  0  0  0  0  0  0
   -3.3210   -0.8262    0.8986 H   0  0  0  0  0  0  0  0  0  0  0  0
   -4.4905    1.3602    0.8787 H   0  0  0  0  0  0  0  0  0  0  0  0
   -4.4929    1.3428   -0.9011 H   0  0  0  0  0  0  0  0  0  0  0  0
   -7.7550   -0.0658    0.0070 H   0  0  0  0  0  0  0  0  0  0  0  0
  1  2  1  0  0  0  0
  2  3  1  0  0  0  0
  3  4  1  0  0  0  0
  4  5  1  0  0  0  0
  5  6  1  0  0  0  0
  6  7  1  0  0  0  0
  7  8  1  0  0  0  0
  8  9  1  0  0  0  0
  9 10  1  0  0  0  0
 10 11  1  0  0  0  0
 11 12  1  0  0  0  0
 12 13  2  0  0  0  0
 12 14  1  0  0  0  0
  1 15  1  0  0  0  0
  1 16  1  0  0  0  0
  2 17  1  0  0  0  0
  2 18  1  0  0  0  0
  3 19  1  0  0  0  0
  3 20  1  0  0  0  0
  4 21  1  0  0  0  0
  4 22  1  0  0  0  0
  5 23  1  0  0  0  0
  5 24  1  0  0  0  0
  6 25  1  0  0  0  0
  6 26  1  0  0  0  0
  7 27  1  0  0  0  0
  7 28  1  0  0  0  0
  8 29  1  0  0  0  0
  8 30  1  0  0  0  0
  9 31  1  0  0  0  0
  9 32  1  0  0  0  0
 10 33  1  0  0  0  0
 10 34  1  0  0  0  0
 11 35  1  0  0  0  0
 11 36  1  0  0  0  0
 14 37  1  0  0  0  0
M  END
$$$$
