C11H21BrO2
APtclcactv12111704493D 0   0.00000     0.00000
 
 35 34  0  0  0  0  0  0  0  0999 V2000
   -6.3125    0.1842   -0.0000 Br  0  0  0  0  0  0  0  0  0  0  0  0
   -4.6365   -0.8436    0.0000 C   0  0  0  0  0  0  0  0  0  0  0  0
   -3.4476    0.1194    0.0000 C   0  0  0  0  0  0  0  0  0  0  0  0
   -2.1434   -0.6804    0.0000 C   0  0  0  0  0  0  0  0  0  0  0  0
   -0.9545    0.2826    0.0000 C   0  0  0  0  0  0  0  0  0  0  0  0
    0.3498   -0.5173    0.0000 C   0  0  0  0  0  0  0  0  0  0  0  0
    1.5387    0.4458    0.0000 C   0  0  0  0  0  0  0  0  0  0  0  0
    2.8429   -0.3541    0.0000 C   0  0  0  0  0  0  0  0  0  0  0  0
    4.0318    0.6089    0.0000 C   0  0  0  0  0  0  0  0  0  0  0  0
    5.3361   -0.1910   -0.0000 C   0  0  0  0  0  0  0  0  0  0  0  0
    6.5250    0.7721    0.0000 C   0  0  0  0  0  0  0  0  0  0  0  0
    7.8096   -0.0158   -0.0000 C   0  0  0  0  0  0  0  0  0  0  0  0
    7.7775   -1.2236   -0.0000 O   0  0  0  0  0  0  0  0  0  0  0  0
    8.9895    0.6243   -0.0000 O   0  0  0  0  0  0  0  0  0  0  0  0
   -4.5954   -1.4716    0.8900 H   0  0  0  0  0  0  0  0  0  0  0  0
   -4.5954   -1.4716   -0.8900 H   0  0  0  0  0  0  0  0  0  0  0  0
   -3.4887    0.7474   -0.8900 H   0  0  0  0  0  0  0  0  0  0  0  0
   -3.4887    0.7474    0.8900 H   0  0  0  0  0  0  0  0  0  0  0  0
   -2.1023   -1.3084    0.8900 H   0  0  0  0  0  0  0  0  0  0  0  0
   -2.1023   -1.3084   -0.8900 H   0  0  0  0  0  0  0  0  0  0  0  0
   -0.9956    0.9106   -0.8900 H   0  0  0  0  0  0  0  0  0  0  0  0
   -0.9956    0.9106    0.8900 H   0  0  0  0  0  0  0  0  0  0  0  0
    0.3909   -1.1453    0.8900 H   0  0  0  0  0  0  0  0  0  0  0  0
    0.3909   -1.1453   -0.8900 H   0  0  0  0  0  0  0  0  0  0  0  0
    1.4976    1.0737   -0.8900 H   0  0  0  0  0  0  0  0  0  0  0  0
    1.4976    1.0737    0.8900 H   0  0  0  0  0  0  0  0  0  0  0  0
    2.8840   -0.9821    0.8900 H   0  0  0  0  0  0  0  0  0  0  0  0
    2.8840   -0.9821   -0.8900 H   0  0  0  0  0  0  0  0  0  0  0  0
    3.9907    1.2369   -0.8900 H   0  0  0  0  0  0  0  0  0  0  0  0
    3.9907    1.2369    0.8900 H   0  0  0  0  0  0  0  0  0  0  0  0
    5.3772   -0.8189    0.8900 H   0  0  0  0  0  0  0  0  0  0  0  0
    5.3772   -0.8189   -0.8900 H   0  0  0  0  0  0  0  0  0  0  0  0
    6.4839    1.4000   -0.8900 H   0  0  0  0  0  0  0  0  0  0  0  0
    6.4839    1.4000    0.8900 H   0  0  0  0  0  0  0  0  0  0  0  0
    9.7862    0.0763   -0.0000 H   0  0  0  0  0  0  0  0  0  0  0  0
  1  2  1  0  0  0  0
  2  3  1  0  0  0  0
  3  4  1  0  0  0  0
  4  5  1  0  0  0  0
  5  6  1  0  0  0  0
  6  7  1  0  0  0  0
  7  8  1  0  0  0  0
  8  9  1  0  0  0  0
  9 10  1  0  0  0  0
 10 11  1  0  0  0  0
 11 12  1  0  0  0  0
 12 13  2  0  0  0  0
 12 14  1  0  0  0  0
  2 15  1  0  0  0  0
  2 16  1  0  0  0  0
  3 17  1  0  0  0  0
  3 18  1  0  0  0  0
  4 19  1  0  0  0  0
  4 20  1  0  0  0  0
  5 21  1  0  0  0  0
  5 22  1  0  0  0  0
  6 23  1  0  0  0  0
  6 24  1  0  0  0  0
  7 25  1  0  0  0  0
  7 26  1  0  0  0  0
  8 27  1  0  0  0  0
  8 28  1  0  0  0  0
  9 29  1  0  0  0  0
  9 30  1  0  0  0  0
 10 31  1  0  0  0  0
 10 32  1  0  0  0  0
 11 33  1  0  0  0  0
 11 34  1  0  0  0  0
 14 35  1  0  0  0  0
M  END
$$$$
