C19H17N3O5
APtclcactv12211717193D 0   0.00000     0.00000
 
 44 46  0  0  0  0  0  0  0  0999 V2000
    3.3890   -1.8212    0.2517 C   0  0  0  0  0  0  0  0  0  0  0  0
    4.1229   -0.5802   -0.0726 C   0  0  0  0  0  0  0  0  0  0  0  0
    5.3214   -0.2831    0.5798 C   0  0  0  0  0  0  0  0  0  0  0  0
    6.0012    0.8769    0.2722 C   0  0  0  0  0  0  0  0  0  0  0  0
    5.4981    1.7457   -0.6801 C   0  0  0  0  0  0  0  0  0  0  0  0
    4.3108    1.4578   -1.3302 C   0  0  0  0  0  0  0  0  0  0  0  0
    3.6241    0.2980   -1.0372 C   0  0  0  0  0  0  0  0  0  0  0  0
    4.0006   -2.8291    0.5501 O   0  0  0  0  0  0  0  0  0  0  0  0
    1.9157   -1.8358    0.2195 C   0  0  0  0  0  0  0  0  0  0  0  0
    1.2235   -3.0452    0.3769 C   0  0  0  0  0  0  0  0  0  0  0  0
   -0.1378   -3.0704    0.3484 C   0  0  0  0  0  0  0  0  0  0  0  0
   -0.8588   -1.8842    0.1609 C   0  0  0  0  0  0  0  0  0  0  0  0
   -0.1699   -0.6672    0.0028 C   0  0  0  0  0  0  0  0  0  0  0  0
   -1.1460    0.3095   -0.1607 N   0  0  0  0  0  0  0  0  0  0  0  0
   -2.3608   -0.3236   -0.0989 C   0  0  0  0  0  0  0  0  0  0  0  0
   -2.1840   -1.6068    0.0894 N   0  0  0  0  0  0  0  0  0  0  0  0
   -3.5876    0.2996   -0.2173 N   0  0  0  0  0  0  0  0  0  0  0  0
   -4.7216   -0.4247   -0.1406 C   0  0  0  0  0  0  0  0  0  0  0  0
   -4.6647   -1.6258    0.0326 O   0  0  0  0  0  0  0  0  0  0  0  0
   -5.9174    0.1828   -0.2560 O   0  0  0  0  0  0  0  0  0  0  0  0
   -7.0964   -0.6597   -0.1635 C   0  0  0  0  0  0  0  0  0  0  0  0
   -0.9377    1.6284   -0.3442 C   0  0  0  0  0  0  0  0  0  0  0  0
   -0.8185    2.0737   -1.4677 O   0  0  0  0  0  0  0  0  0  0  0  0
   -0.8618    2.4518    0.7176 O   0  0  0  0  0  0  0  0  0  0  0  0
   -0.6359    3.8599    0.4449 C   0  0  0  0  0  0  0  0  0  0  0  0
   -0.5796    4.6323    1.7644 C   0  0  0  0  0  0  0  0  0  0  0  0
    1.2096   -0.6436    0.0379 C   0  0  0  0  0  0  0  0  0  0  0  0
    5.7149   -0.9599    1.3238 H   0  0  0  0  0  0  0  0  0  0  0  0
    6.9282    1.1079    0.7760 H   0  0  0  0  0  0  0  0  0  0  0  0
    6.0342    2.6529   -0.9169 H   0  0  0  0  0  0  0  0  0  0  0  0
    3.9234    2.1406   -2.0719 H   0  0  0  0  0  0  0  0  0  0  0  0
    2.6977    0.0745   -1.5452 H   0  0  0  0  0  0  0  0  0  0  0  0
    1.7739   -3.9631    0.5214 H   0  0  0  0  0  0  0  0  0  0  0  0
   -0.6623   -4.0066    0.4701 H   0  0  0  0  0  0  0  0  0  0  0  0
   -3.6331    1.2586   -0.3557 H   0  0  0  0  0  0  0  0  0  0  0  0
   -7.0708   -1.4086   -0.9550 H   0  0  0  0  0  0  0  0  0  0  0  0
   -7.1127   -1.1565    0.8065 H   0  0  0  0  0  0  0  0  0  0  0  0
   -7.9908   -0.0462   -0.2726 H   0  0  0  0  0  0  0  0  0  0  0  0
    0.3079    3.9801   -0.0870 H   0  0  0  0  0  0  0  0  0  0  0  0
   -1.4501    4.2466   -0.1680 H   0  0  0  0  0  0  0  0  0  0  0  0
   -1.5234    4.5121    2.2963 H   0  0  0  0  0  0  0  0  0  0  0  0
    0.2346    4.2457    2.3773 H   0  0  0  0  0  0  0  0  0  0  0  0
   -0.4100    5.6894    1.5598 H   0  0  0  0  0  0  0  0  0  0  0  0
    1.7404    0.2892   -0.0828 H   0  0  0  0  0  0  0  0  0  0  0  0
  1  2  1  0  0  0  0
  2  3  2  0  0  0  0
  3  4  1  0  0  0  0
  4  5  2  0  0  0  0
  5  6  1  0  0  0  0
  6  7  2  0  0  0  0
  2  7  1  0  0  0  0
  1  8  2  0  0  0  0
  1  9  1  0  0  0  0
  9 10  1  0  0  0  0
 10 11  2  0  0  0  0
 11 12  1  0  0  0  0
 12 13  2  0  0  0  0
 13 14  1  0  0  0  0
 14 15  1  0  0  0  0
 15 16  2  0  0  0  0
 12 16  1  0  0  0  0
 15 17  1  0  0  0  0
 17 18  1  0  0  0  0
 18 19  2  0  0  0  0
 18 20  1  0  0  0  0
 20 21  1  0  0  0  0
 14 22  1  0  0  0  0
 22 23  2  0  0  0  0
 22 24  1  0  0  0  0
 24 25  1  0  0  0  0
 25 26  1  0  0  0  0
 13 27  1  0  0  0  0
  9 27  2  0  0  0  0
  3 28  1  0  0  0  0
  4 29  1  0  0  0  0
  5 30  1  0  0  0  0
  6 31  1  0  0  0  0
  7 32  1  0  0  0  0
 10 33  1  0  0  0  0
 11 34  1  0  0  0  0
 17 35  1  0  0  0  0
 21 36  1  0  0  0  0
 21 37  1  0  0  0  0
 21 38  1  0  0  0  0
 25 39  1  0  0  0  0
 25 40  1  0  0  0  0
 26 41  1  0  0  0  0
 26 42  1  0  0  0  0
 26 43  1  0  0  0  0
 27 44  1  0  0  0  0
M  END
$$$$
