C9H12N4O2
APtclcactv12151716483D 0   0.00000     0.00000
 
 27 28  0  0  0  0  0  0  0  0999 V2000
    2.2806   -1.1874   -0.4987 C   0  0  0  0  0  0  0  0  0  0  0  0
    3.0947   -1.9957   -1.5111 C   0  0  0  0  0  0  0  0  0  0  0  0
    2.7625    0.1575   -0.4651 O   0  0  0  0  0  0  0  0  0  0  0  0
    2.1595    0.9659    0.5473 C   0  0  0  0  0  0  0  0  0  0  0  0
    2.9560    2.2625    0.7063 C   0  0  0  0  0  0  0  0  0  0  0  0
    0.8158    1.2753    0.1722 O   0  0  0  0  0  0  0  0  0  0  0  0
   -0.1131    0.3089    0.3613 C   0  0  0  0  0  0  0  0  0  0  0  0
   -1.4333    0.4814   -0.0898 C   0  0  0  0  0  0  0  0  0  0  0  0
   -2.3572   -0.5591    0.1347 C   0  0  0  0  0  0  0  0  0  0  0  0
   -1.9452   -1.6590    0.7615 N   0  0  0  0  0  0  0  0  0  0  0  0
   -0.6988   -1.7735    1.1645 C   0  0  0  0  0  0  0  0  0  0  0  0
    0.2021   -0.8259    0.9719 N   0  0  0  0  0  0  0  0  0  0  0  0
   -3.5445   -0.1442   -0.3913 N   0  0  0  0  0  0  0  0  0  0  0  0
   -3.3614    1.1339   -0.9341 N   0  0  0  0  0  0  0  0  0  0  0  0
   -2.1268    1.5112   -0.7630 C   0  0  0  0  0  0  0  0  0  0  0  0
    1.2308   -1.1899   -0.7918 H   0  0  0  0  0  0  0  0  0  0  0  0
    2.3830   -1.6348    0.4899 H   0  0  0  0  0  0  0  0  0  0  0  0
    2.9924   -1.5483   -2.4997 H   0  0  0  0  0  0  0  0  0  0  0  0
    4.1446   -1.9931   -1.2180 H   0  0  0  0  0  0  0  0  0  0  0  0
    2.7272   -3.0215   -1.5367 H   0  0  0  0  0  0  0  0  0  0  0  0
    2.1571    0.4227    1.4923 H   0  0  0  0  0  0  0  0  0  0  0  0
    2.4961    2.8791    1.4785 H   0  0  0  0  0  0  0  0  0  0  0  0
    3.9810    2.0265    0.9924 H   0  0  0  0  0  0  0  0  0  0  0  0
    2.9585    2.8056   -0.2388 H   0  0  0  0  0  0  0  0  0  0  0  0
   -0.3985   -2.6793    1.6702 H   0  0  0  0  0  0  0  0  0  0  0  0
   -4.3735   -0.6479   -0.3904 H   0  0  0  0  0  0  0  0  0  0  0  0
   -1.7047    2.4529   -1.0815 H   0  0  0  0  0  0  0  0  0  0  0  0
  1  2  1  0  0  0  0
  1  3  1  0  0  0  0
  3  4  1  0  0  0  0
  4  5  1  0  0  0  0
  4  6  1  0  0  0  0
  6  7  1  0  0  0  0
  7  8  2  0  0  0  0
  8  9  1  0  0  0  0
  9 10  2  0  0  0  0
 10 11  1  0  0  0  0
 11 12  2  0  0  0  0
  7 12  1  0  0  0  0
  9 13  1  0  0  0  0
 13 14  1  0  0  0  0
 14 15  2  0  0  0  0
  8 15  1  0  0  0  0
  1 16  1  0  0  0  0
  1 17  1  0  0  0  0
  2 18  1  0  0  0  0
  2 19  1  0  0  0  0
  2 20  1  0  0  0  0
  4 21  1  0  0  0  0
  5 22  1  0  0  0  0
  5 23  1  0  0  0  0
  5 24  1  0  0  0  0
 11 25  1  0  0  0  0
 13 26  1  0  0  0  0
 15 27  1  0  0  0  0
M  END
$$$$
