C12H5Cl5
APtclcactv12111704523D 0   0.00000     0.00000
 
 22 23  0  0  0  0  0  0  0  0999 V2000
   -1.0904   -2.5979   -1.2478 Cl  0  0  0  0  0  0  0  0  0  0  0  0
   -2.1464   -1.3662   -0.6302 C   0  0  0  0  0  0  0  0  0  0  0  0
   -1.6136   -0.2041   -0.0735 C   0  0  0  0  0  0  0  0  0  0  0  0
   -2.4671    0.7806    0.4198 C   0  0  0  0  0  0  0  0  0  0  0  0
   -3.8349    0.6010    0.3550 C   0  0  0  0  0  0  0  0  0  0  0  0
   -4.3585   -0.5551   -0.1985 C   0  0  0  0  0  0  0  0  0  0  0  0
   -3.5164   -1.5330   -0.6947 C   0  0  0  0  0  0  0  0  0  0  0  0
   -4.8997    1.8269    0.9691 Cl  0  0  0  0  0  0  0  0  0  0  0  0
   -0.1433   -0.0171   -0.0062 C   0  0  0  0  0  0  0  0  0  0  0  0
    0.4326    1.1649   -0.4675 C   0  0  0  0  0  0  0  0  0  0  0  0
    1.8017    1.3350   -0.4025 C   0  0  0  0  0  0  0  0  0  0  0  0
    2.6022    0.3324    0.1200 C   0  0  0  0  0  0  0  0  0  0  0  0
    2.0340   -0.8445    0.5793 C   0  0  0  0  0  0  0  0  0  0  0  0
    0.6652   -1.0206    0.5239 C   0  0  0  0  0  0  0  0  0  0  0  0
    3.0432   -2.0970    1.2323 Cl  0  0  0  0  0  0  0  0  0  0  0  0
    4.3225    0.5512    0.1988 Cl  0  0  0  0  0  0  0  0  0  0  0  0
    2.5205    2.8071   -0.9769 Cl  0  0  0  0  0  0  0  0  0  0  0  0
   -2.0597    1.6824    0.8524 H   0  0  0  0  0  0  0  0  0  0  0  0
   -5.4288   -0.6916   -0.2469 H   0  0  0  0  0  0  0  0  0  0  0  0
   -3.9302   -2.4328   -1.1254 H   0  0  0  0  0  0  0  0  0  0  0  0
   -0.1907    1.9468   -0.8756 H   0  0  0  0  0  0  0  0  0  0  0  0
    0.2230   -1.9383    0.8825 H   0  0  0  0  0  0  0  0  0  0  0  0
  1  2  1  0  0  0  0
  2  3  2  0  0  0  0
  3  4  1  0  0  0  0
  4  5  2  0  0  0  0
  5  6  1  0  0  0  0
  6  7  2  0  0  0  0
  2  7  1  0  0  0  0
  5  8  1  0  0  0  0
  3  9  1  0  0  0  0
  9 10  2  0  0  0  0
 10 11  1  0  0  0  0
 11 12  2  0  0  0  0
 12 13  1  0  0  0  0
 13 14  2  0  0  0  0
  9 14  1  0  0  0  0
 13 15  1  0  0  0  0
 12 16  1  0  0  0  0
 11 17  1  0  0  0  0
  4 18  1  0  0  0  0
  6 19  1  0  0  0  0
  7 20  1  0  0  0  0
 10 21  1  0  0  0  0
 14 22  1  0  0  0  0
M  END
$$$$
