C12H7Cl3
APtclcactv12111704543D 0   0.00000     0.00000
 
 22 23  0  0  0  0  0  0  0  0999 V2000
   -2.2117   -2.0136   -0.8311 Cl  0  0  0  0  0  0  0  0  0  0  0  0
   -2.7447   -0.4719   -0.2372 C   0  0  0  0  0  0  0  0  0  0  0  0
   -1.8189    0.4406    0.2672 C   0  0  0  0  0  0  0  0  0  0  0  0
   -2.2542    1.6764    0.7417 C   0  0  0  0  0  0  0  0  0  0  0  0
   -3.5976    1.9907    0.7102 C   0  0  0  0  0  0  0  0  0  0  0  0
   -4.5123    1.0819    0.2088 C   0  0  0  0  0  0  0  0  0  0  0  0
   -4.0865   -0.1440   -0.2685 C   0  0  0  0  0  0  0  0  0  0  0  0
   -0.3759    0.0970    0.2990 C   0  0  0  0  0  0  0  0  0  0  0  0
    0.5656    0.9859   -0.2152 C   0  0  0  0  0  0  0  0  0  0  0  0
    1.9078    0.6614   -0.1828 C   0  0  0  0  0  0  0  0  0  0  0  0
    2.3176   -0.5455    0.3600 C   0  0  0  0  0  0  0  0  0  0  0  0
    1.3850   -1.4313    0.8719 C   0  0  0  0  0  0  0  0  0  0  0  0
    0.0425   -1.1135    0.8487 C   0  0  0  0  0  0  0  0  0  0  0  0
    4.0057   -0.9486    0.3978 Cl  0  0  0  0  0  0  0  0  0  0  0  0
    3.0827    1.7672   -0.8235 Cl  0  0  0  0  0  0  0  0  0  0  0  0
   -1.5415    2.3868    1.1338 H   0  0  0  0  0  0  0  0  0  0  0  0
   -3.9356    2.9482    1.0782 H   0  0  0  0  0  0  0  0  0  0  0  0
   -5.5626    1.3325    0.1866 H   0  0  0  0  0  0  0  0  0  0  0  0
   -4.8049   -0.8497   -0.6588 H   0  0  0  0  0  0  0  0  0  0  0  0
    0.2465    1.9267   -0.6388 H   0  0  0  0  0  0  0  0  0  0  0  0
    1.7092   -2.3712    1.2938 H   0  0  0  0  0  0  0  0  0  0  0  0
   -0.6839   -1.8054    1.2488 H   0  0  0  0  0  0  0  0  0  0  0  0
  1  2  1  0  0  0  0
  2  3  2  0  0  0  0
  3  4  1  0  0  0  0
  4  5  2  0  0  0  0
  5  6  1  0  0  0  0
  6  7  2  0  0  0  0
  2  7  1  0  0  0  0
  3  8  1  0  0  0  0
  8  9  2  0  0  0  0
  9 10  1  0  0  0  0
 10 11  2  0  0  0  0
 11 12  1  0  0  0  0
 12 13  2  0  0  0  0
  8 13  1  0  0  0  0
 11 14  1  0  0  0  0
 10 15  1  0  0  0  0
  4 16  1  0  0  0  0
  5 17  1  0  0  0  0
  6 18  1  0  0  0  0
  7 19  1  0  0  0  0
  9 20  1  0  0  0  0
 12 21  1  0  0  0  0
 13 22  1  0  0  0  0
M  END
$$$$
