C15H14N2O5
APtclcactv12211717073D 0   0.00000     0.00000
 
 36 37  0  0  0  0  0  0  0  0999 V2000
   -4.8850   -1.8611    0.4534 C   0  0  0  0  0  0  0  0  0  0  0  0
   -4.7574   -3.3710    0.6654 C   0  0  0  0  0  0  0  0  0  0  0  0
   -3.5928   -1.3041    0.2045 O   0  0  0  0  0  0  0  0  0  0  0  0
   -3.5291    0.0377   -0.0066 C   0  0  0  0  0  0  0  0  0  0  0  0
   -2.3017    0.6480   -0.2553 C   0  0  0  0  0  0  0  0  0  0  0  0
   -1.1303   -0.1189   -0.2891 N   0  0  0  0  0  0  0  0  0  0  0  0
    0.0601    0.4572   -0.0289 C   0  0  0  0  0  0  0  0  0  0  0  0
    1.3047   -0.3192   -0.1835 C   0  0  0  0  0  0  0  0  0  0  0  0
    2.5447    0.2759    0.0860 C   0  0  0  0  0  0  0  0  0  0  0  0
    3.7086   -0.4638   -0.0622 C   0  0  0  0  0  0  0  0  0  0  0  0
    3.6444   -1.7801   -0.4734 C   0  0  0  0  0  0  0  0  0  0  0  0
    2.4207   -2.3719   -0.7412 C   0  0  0  0  0  0  0  0  0  0  0  0
    1.2540   -1.6538   -0.5937 C   0  0  0  0  0  0  0  0  0  0  0  0
    5.0213    0.1592    0.2203 N   0  3  0  0  0  0  0  0  0  0  0  0
    6.0439   -0.4897    0.0904 O   0  0  0  0  0  0  0  0  0  0  0  0
    5.0789    1.3206    0.5828 O   0  5  0  0  0  0  0  0  0  0  0  0
    2.6063    1.5696    0.4895 O   0  0  0  0  0  0  0  0  0  0  0  0
    0.1079    1.6171    0.3332 O   0  0  0  0  0  0  0  0  0  0  0  0
   -2.2431    2.0174   -0.4698 C   0  0  0  0  0  0  0  0  0  0  0  0
   -3.4005    2.7718   -0.4364 C   0  0  0  0  0  0  0  0  0  0  0  0
   -4.6184    2.1654   -0.1895 C   0  0  0  0  0  0  0  0  0  0  0  0
   -4.6854    0.8004    0.0196 C   0  0  0  0  0  0  0  0  0  0  0  0
   -5.5346   -1.6678   -0.4003 H   0  0  0  0  0  0  0  0  0  0  0  0
   -5.3121   -1.4037    1.3458 H   0  0  0  0  0  0  0  0  0  0  0  0
   -4.3303   -3.8284   -0.2270 H   0  0  0  0  0  0  0  0  0  0  0  0
   -4.1078   -3.5643    1.5191 H   0  0  0  0  0  0  0  0  0  0  0  0
   -5.7430   -3.7958    0.8553 H   0  0  0  0  0  0  0  0  0  0  0  0
   -1.1756   -1.0646   -0.4998 H   0  0  0  0  0  0  0  0  0  0  0  0
    4.5536   -2.3519   -0.5873 H   0  0  0  0  0  0  0  0  0  0  0  0
    2.3807   -3.4022   -1.0627 H   0  0  0  0  0  0  0  0  0  0  0  0
    0.3023   -2.1193   -0.8033 H   0  0  0  0  0  0  0  0  0  0  0  0
    2.5658    1.6847    1.4488 H   0  0  0  0  0  0  0  0  0  0  0  0
   -1.2932    2.4938   -0.6625 H   0  0  0  0  0  0  0  0  0  0  0  0
   -3.3536    3.8379   -0.6032 H   0  0  0  0  0  0  0  0  0  0  0  0
   -5.5203    2.7589   -0.1643 H   0  0  0  0  0  0  0  0  0  0  0  0
   -5.6383    0.3298    0.2118 H   0  0  0  0  0  0  0  0  0  0  0  0
  1  2  1  0  0  0  0
  1  3  1  0  0  0  0
  3  4  1  0  0  0  0
  4  5  2  0  0  0  0
  5  6  1  0  0  0  0
  6  7  1  0  0  0  0
  7  8  1  0  0  0  0
  8  9  2  0  0  0  0
  9 10  1  0  0  0  0
 10 11  2  0  0  0  0
 11 12  1  0  0  0  0
 12 13  2  0  0  0  0
  8 13  1  0  0  0  0
 10 14  1  0  0  0  0
 14 15  2  0  0  0  0
 14 16  1  0  0  0  0
  9 17  1  0  0  0  0
  7 18  2  0  0  0  0
  5 19  1  0  0  0  0
 19 20  2  0  0  0  0
 20 21  1  0  0  0  0
 21 22  2  0  0  0  0
  4 22  1  0  0  0  0
  1 23  1  0  0  0  0
  1 24  1  0  0  0  0
  2 25  1  0  0  0  0
  2 26  1  0  0  0  0
  2 27  1  0  0  0  0
  6 28  1  0  0  0  0
 11 29  1  0  0  0  0
 12 30  1  0  0  0  0
 13 31  1  0  0  0  0
 17 32  1  0  0  0  0
 19 33  1  0  0  0  0
 20 34  1  0  0  0  0
 21 35  1  0  0  0  0
 22 36  1  0  0  0  0
M  CHG  2  14   1  16  -1
M  END
$$$$
