C14H12N2O4
APtclcactv12091702573D 0   0.00000     0.00000
 
 32 33  0  0  0  0  0  0  0  0999 V2000
   -3.6651    2.2527    0.7574 C   0  0  0  0  0  0  0  0  0  0  0  0
   -3.9076    0.8284    0.3288 C   0  0  0  0  0  0  0  0  0  0  0  0
   -2.8655    0.0719   -0.1911 C   0  0  0  0  0  0  0  0  0  0  0  0
   -1.5895    0.6302   -0.3178 N   0  0  0  0  0  0  0  0  0  0  0  0
   -0.4969   -0.1365   -0.1312 C   0  0  0  0  0  0  0  0  0  0  0  0
    0.8461    0.4724   -0.1664 C   0  0  0  0  0  0  0  0  0  0  0  0
    1.9850   -0.3211    0.0271 C   0  0  0  0  0  0  0  0  0  0  0  0
    3.2430    0.2620   -0.0085 C   0  0  0  0  0  0  0  0  0  0  0  0
    3.3711    1.6182   -0.2331 C   0  0  0  0  0  0  0  0  0  0  0  0
    2.2476    2.4062   -0.4244 C   0  0  0  0  0  0  0  0  0  0  0  0
    0.9906    1.8426   -0.3985 C   0  0  0  0  0  0  0  0  0  0  0  0
    4.4498   -0.5707    0.1950 N   0  3  0  0  0  0  0  0  0  0  0  0
    5.5548   -0.0594    0.1639 O   0  0  0  0  0  0  0  0  0  0  0  0
    4.3377   -1.7671    0.3937 O   0  5  0  0  0  0  0  0  0  0  0  0
    1.8576   -1.6534    0.2485 O   0  0  0  0  0  0  0  0  0  0  0  0
   -0.6183   -1.3302    0.0660 O   0  0  0  0  0  0  0  0  0  0  0  0
   -3.0932   -1.2407   -0.5845 C   0  0  0  0  0  0  0  0  0  0  0  0
   -4.3541   -1.7891   -0.4577 C   0  0  0  0  0  0  0  0  0  0  0  0
   -5.3898   -1.0329    0.0604 C   0  0  0  0  0  0  0  0  0  0  0  0
   -5.1653    0.2722    0.4579 C   0  0  0  0  0  0  0  0  0  0  0  0
   -3.8426    2.9210   -0.0852 H   0  0  0  0  0  0  0  0  0  0  0  0
   -4.3428    2.5073    1.5722 H   0  0  0  0  0  0  0  0  0  0  0  0
   -2.6343    2.3599    1.0952 H   0  0  0  0  0  0  0  0  0  0  0  0
   -1.4909    1.5693   -0.5399 H   0  0  0  0  0  0  0  0  0  0  0  0
    4.3528    2.0676   -0.2596 H   0  0  0  0  0  0  0  0  0  0  0  0
    2.3579    3.4663   -0.5987 H   0  0  0  0  0  0  0  0  0  0  0  0
    0.1176    2.4607   -0.5480 H   0  0  0  0  0  0  0  0  0  0  0  0
    1.8648   -2.1885   -0.5569 H   0  0  0  0  0  0  0  0  0  0  0  0
   -2.2849   -1.8316   -0.9895 H   0  0  0  0  0  0  0  0  0  0  0  0
   -4.5319   -2.8094   -0.7638 H   0  0  0  0  0  0  0  0  0  0  0  0
   -6.3752   -1.4641    0.1583 H   0  0  0  0  0  0  0  0  0  0  0  0
   -5.9762    0.8600    0.8621 H   0  0  0  0  0  0  0  0  0  0  0  0
  1  2  1  0  0  0  0
  2  3  2  0  0  0  0
  3  4  1  0  0  0  0
  4  5  1  0  0  0  0
  5  6  1  0  0  0  0
  6  7  2  0  0  0  0
  7  8  1  0  0  0  0
  8  9  2  0  0  0  0
  9 10  1  0  0  0  0
 10 11  2  0  0  0  0
  6 11  1  0  0  0  0
  8 12  1  0  0  0  0
 12 13  2  0  0  0  0
 12 14  1  0  0  0  0
  7 15  1  0  0  0  0
  5 16  2  0  0  0  0
  3 17  1  0  0  0  0
 17 18  2  0  0  0  0
 18 19  1  0  0  0  0
 19 20  2  0  0  0  0
  2 20  1  0  0  0  0
  1 21  1  0  0  0  0
  1 22  1  0  0  0  0
  1 23  1  0  0  0  0
  4 24  1  0  0  0  0
  9 25  1  0  0  0  0
 10 26  1  0  0  0  0
 11 27  1  0  0  0  0
 15 28  1  0  0  0  0
 17 29  1  0  0  0  0
 18 30  1  0  0  0  0
 19 31  1  0  0  0  0
 20 32  1  0  0  0  0
M  CHG  2  12   1  14  -1
M  END
$$$$
