C12H4Cl6
APtclcactv12111704513D 0   0.00000     0.00000
 
 22 23  0  0  0  0  0  0  0  0999 V2000
   -0.9399   -2.1836    0.9420 Cl  0  0  0  0  0  0  0  0  0  0  0  0
   -1.6602   -0.6844    0.4447 C   0  0  0  0  0  0  0  0  0  0  0  0
   -0.8590    0.3488   -0.0392 C   0  0  0  0  0  0  0  0  0  0  0  0
   -1.4437    1.5495   -0.4371 C   0  0  0  0  0  0  0  0  0  0  0  0
   -2.8127    1.7106   -0.3504 C   0  0  0  0  0  0  0  0  0  0  0  0
   -3.6045    0.6820    0.1312 C   0  0  0  0  0  0  0  0  0  0  0  0
   -3.0303   -0.5146    0.5225 C   0  0  0  0  0  0  0  0  0  0  0  0
   -4.0301   -1.7996    1.1247 Cl  0  0  0  0  0  0  0  0  0  0  0  0
   -3.5420    3.2060   -0.8459 Cl  0  0  0  0  0  0  0  0  0  0  0  0
    0.6111    0.1708   -0.1298 C   0  0  0  0  0  0  0  0  0  0  0  0
    1.1487   -0.7757   -1.0012 C   0  0  0  0  0  0  0  0  0  0  0  0
    2.5183   -0.9373   -1.0823 C   0  0  0  0  0  0  0  0  0  0  0  0
    3.3563   -0.1618   -0.3006 C   0  0  0  0  0  0  0  0  0  0  0  0
    2.8268    0.7802    0.5670 C   0  0  0  0  0  0  0  0  0  0  0  0
    1.4594    0.9530    0.6515 C   0  0  0  0  0  0  0  0  0  0  0  0
    3.8847    1.7493    1.5445 Cl  0  0  0  0  0  0  0  0  0  0  0  0
    5.0765   -0.3701   -0.4066 Cl  0  0  0  0  0  0  0  0  0  0  0  0
    0.0987   -1.7498   -1.9822 Cl  0  0  0  0  0  0  0  0  0  0  0  0
   -0.8273    2.3530   -0.8124 H   0  0  0  0  0  0  0  0  0  0  0  0
   -4.6745    0.8126    0.1979 H   0  0  0  0  0  0  0  0  0  0  0  0
    2.9357   -1.6704   -1.7567 H   0  0  0  0  0  0  0  0  0  0  0  0
    1.0478    1.6876    1.3276 H   0  0  0  0  0  0  0  0  0  0  0  0
  1  2  1  0  0  0  0
  2  3  2  0  0  0  0
  3  4  1  0  0  0  0
  4  5  2  0  0  0  0
  5  6  1  0  0  0  0
  6  7  2  0  0  0  0
  2  7  1  0  0  0  0
  7  8  1  0  0  0  0
  5  9  1  0  0  0  0
  3 10  1  0  0  0  0
 10 11  2  0  0  0  0
 11 12  1  0  0  0  0
 12 13  2  0  0  0  0
 13 14  1  0  0  0  0
 14 15  2  0  0  0  0
 10 15  1  0  0  0  0
 14 16  1  0  0  0  0
 13 17  1  0  0  0  0
 11 18  1  0  0  0  0
  4 19  1  0  0  0  0
  6 20  1  0  0  0  0
 12 21  1  0  0  0  0
 15 22  1  0  0  0  0
M  END
$$$$
