C12H6Cl4
APtclcactv12111704533D 0   0.00000     0.00000
 
 22 23  0  0  0  0  0  0  0  0999 V2000
    0.2923   -1.7834    0.8901 Cl  0  0  0  0  0  0  0  0  0  0  0  0
   -0.4382   -0.2981    0.3668 C   0  0  0  0  0  0  0  0  0  0  0  0
    0.3586    0.8097    0.0809 C   0  0  0  0  0  0  0  0  0  0  0  0
   -0.2342    1.9989   -0.3392 C   0  0  0  0  0  0  0  0  0  0  0  0
   -1.6056    2.0756   -0.4704 C   0  0  0  0  0  0  0  0  0  0  0  0
   -2.3941    0.9737   -0.1857 C   0  0  0  0  0  0  0  0  0  0  0  0
   -1.8110   -0.2128    0.2272 C   0  0  0  0  0  0  0  0  0  0  0  0
   -2.8059   -1.5904    0.5819 Cl  0  0  0  0  0  0  0  0  0  0  0  0
   -4.1189    1.0778   -0.3527 Cl  0  0  0  0  0  0  0  0  0  0  0  0
    1.8328    0.7229    0.2240 C   0  0  0  0  0  0  0  0  0  0  0  0
    2.5667   -0.1305   -0.5990 C   0  0  0  0  0  0  0  0  0  0  0  0
    3.9393   -0.2069   -0.4609 C   0  0  0  0  0  0  0  0  0  0  0  0
    4.5844    0.5606    0.4915 C   0  0  0  0  0  0  0  0  0  0  0  0
    3.8605    1.4089    1.3104 C   0  0  0  0  0  0  0  0  0  0  0  0
    2.4899    1.4981    1.1774 C   0  0  0  0  0  0  0  0  0  0  0  0
    1.7577   -1.0953   -1.7941 Cl  0  0  0  0  0  0  0  0  0  0  0  0
    0.3791    2.8596   -0.5614 H   0  0  0  0  0  0  0  0  0  0  0  0
   -2.0650    2.9973   -0.7956 H   0  0  0  0  0  0  0  0  0  0  0  0
    4.5093   -0.8673   -1.0975 H   0  0  0  0  0  0  0  0  0  0  0  0
    5.6574    0.4974    0.5966 H   0  0  0  0  0  0  0  0  0  0  0  0
    4.3698    2.0056    2.0526 H   0  0  0  0  0  0  0  0  0  0  0  0
    1.9263    2.1608    1.8175 H   0  0  0  0  0  0  0  0  0  0  0  0
  1  2  1  0  0  0  0
  2  3  2  0  0  0  0
  3  4  1  0  0  0  0
  4  5  2  0  0  0  0
  5  6  1  0  0  0  0
  6  7  2  0  0  0  0
  2  7  1  0  0  0  0
  7  8  1  0  0  0  0
  6  9  1  0  0  0  0
  3 10  1  0  0  0  0
 10 11  2  0  0  0  0
 11 12  1  0  0  0  0
 12 13  2  0  0  0  0
 13 14  1  0  0  0  0
 14 15  2  0  0  0  0
 10 15  1  0  0  0  0
 11 16  1  0  0  0  0
  4 17  1  0  0  0  0
  5 18  1  0  0  0  0
 12 19  1  0  0  0  0
 13 20  1  0  0  0  0
 14 21  1  0  0  0  0
 15 22  1  0  0  0  0
M  END
$$$$
