C12H3Cl7
APtclcactv12111704503D 0   0.00000     0.00000
 
 22 23  0  0  0  0  0  0  0  0999 V2000
   -0.7204   -0.9202    2.2304 Cl  0  0  0  0  0  0  0  0  0  0  0  0
   -1.3782   -0.4240    0.7024 C   0  0  0  0  0  0  0  0  0  0  0  0
   -0.5269   -0.1208   -0.3592 C   0  0  0  0  0  0  0  0  0  0  0  0
   -1.0621    0.2767   -1.5842 C   0  0  0  0  0  0  0  0  0  0  0  0
   -2.4312    0.3681   -1.7402 C   0  0  0  0  0  0  0  0  0  0  0  0
   -3.2728    0.0665   -0.6832 C   0  0  0  0  0  0  0  0  0  0  0  0
   -2.7474   -0.3343    0.5341 C   0  0  0  0  0  0  0  0  0  0  0  0
   -3.8096   -0.7114    1.8545 Cl  0  0  0  0  0  0  0  0  0  0  0  0
   -4.9928    0.1841   -0.8863 Cl  0  0  0  0  0  0  0  0  0  0  0  0
   -0.0088    0.6566   -2.9108 Cl  0  0  0  0  0  0  0  0  0  0  0  0
    0.9431   -0.2201   -0.1862 C   0  0  0  0  0  0  0  0  0  0  0  0
    1.6720    0.8843    0.2529 C   0  0  0  0  0  0  0  0  0  0  0  0
    3.0420    0.7859    0.4123 C   0  0  0  0  0  0  0  0  0  0  0  0
    3.6889   -0.4059    0.1367 C   0  0  0  0  0  0  0  0  0  0  0  0
    2.9691   -1.5050   -0.2999 C   0  0  0  0  0  0  0  0  0  0  0  0
    1.5995   -1.4193   -0.4565 C   0  0  0  0  0  0  0  0  0  0  0  0
    3.7888   -2.9960   -0.6444 Cl  0  0  0  0  0  0  0  0  0  0  0  0
    3.9519    2.1598    0.9583 Cl  0  0  0  0  0  0  0  0  0  0  0  0
    0.8614    2.3800    0.5982 Cl  0  0  0  0  0  0  0  0  0  0  0  0
   -2.8463    0.6759   -2.6886 H   0  0  0  0  0  0  0  0  0  0  0  0
    4.7591   -0.4788    0.2624 H   0  0  0  0  0  0  0  0  0  0  0  0
    1.0393   -2.2776   -0.7968 H   0  0  0  0  0  0  0  0  0  0  0  0
  1  2  1  0  0  0  0
  2  3  2  0  0  0  0
  3  4  1  0  0  0  0
  4  5  2  0  0  0  0
  5  6  1  0  0  0  0
  6  7  2  0  0  0  0
  2  7  1  0  0  0  0
  7  8  1  0  0  0  0
  6  9  1  0  0  0  0
  4 10  1  0  0  0  0
  3 11  1  0  0  0  0
 11 12  2  0  0  0  0
 12 13  1  0  0  0  0
 13 14  2  0  0  0  0
 14 15  1  0  0  0  0
 15 16  2  0  0  0  0
 11 16  1  0  0  0  0
 15 17  1  0  0  0  0
 13 18  1  0  0  0  0
 12 19  1  0  0  0  0
  5 20  1  0  0  0  0
 14 21  1  0  0  0  0
 16 22  1  0  0  0  0
M  END
$$$$
