C12H5Cl5
APtclcactv12111704523D 0   0.00000     0.00000
 
 22 23  0  0  0  0  0  0  0  0999 V2000
   -1.2028   -2.2267   -0.1706 Cl  0  0  0  0  0  0  0  0  0  0  0  0
   -1.7154   -0.5689   -0.2245 C   0  0  0  0  0  0  0  0  0  0  0  0
   -0.7694    0.4531   -0.2877 C   0  0  0  0  0  0  0  0  0  0  0  0
   -1.1889    1.7825   -0.3308 C   0  0  0  0  0  0  0  0  0  0  0  0
   -2.5377    2.0796   -0.3106 C   0  0  0  0  0  0  0  0  0  0  0  0
   -3.4723    1.0619   -0.2474 C   0  0  0  0  0  0  0  0  0  0  0  0
   -3.0630   -0.2595   -0.2107 C   0  0  0  0  0  0  0  0  0  0  0  0
   -4.2431   -1.5303   -0.1315 Cl  0  0  0  0  0  0  0  0  0  0  0  0
   -0.0179    3.0616   -0.4090 Cl  0  0  0  0  0  0  0  0  0  0  0  0
    0.6778    0.1279   -0.3086 C   0  0  0  0  0  0  0  0  0  0  0  0
    1.3886    0.0229    0.8865 C   0  0  0  0  0  0  0  0  0  0  0  0
    2.7361   -0.2801    0.8610 C   0  0  0  0  0  0  0  0  0  0  0  0
    3.3800   -0.4787   -0.3479 C   0  0  0  0  0  0  0  0  0  0  0  0
    2.6781   -0.3749   -1.5370 C   0  0  0  0  0  0  0  0  0  0  0  0
    1.3305   -0.0793   -1.5224 C   0  0  0  0  0  0  0  0  0  0  0  0
    5.0737   -0.8587   -0.3735 Cl  0  0  0  0  0  0  0  0  0  0  0  0
    0.5819    0.2729    2.4032 Cl  0  0  0  0  0  0  0  0  0  0  0  0
   -2.8632    3.1088   -0.3439 H   0  0  0  0  0  0  0  0  0  0  0  0
   -4.5258    1.2994   -0.2312 H   0  0  0  0  0  0  0  0  0  0  0  0
    3.2881   -0.3618    1.7857 H   0  0  0  0  0  0  0  0  0  0  0  0
    3.1856   -0.5302   -2.4776 H   0  0  0  0  0  0  0  0  0  0  0  0
    0.7844    0.0012   -2.4507 H   0  0  0  0  0  0  0  0  0  0  0  0
  1  2  1  0  0  0  0
  2  3  2  0  0  0  0
  3  4  1  0  0  0  0
  4  5  2  0  0  0  0
  5  6  1  0  0  0  0
  6  7  2  0  0  0  0
  2  7  1  0  0  0  0
  7  8  1  0  0  0  0
  4  9  1  0  0  0  0
  3 10  1  0  0  0  0
 10 11  2  0  0  0  0
 11 12  1  0  0  0  0
 12 13  2  0  0  0  0
 13 14  1  0  0  0  0
 14 15  2  0  0  0  0
 10 15  1  0  0  0  0
 13 16  1  0  0  0  0
 11 17  1  0  0  0  0
  5 18  1  0  0  0  0
  6 19  1  0  0  0  0
 12 20  1  0  0  0  0
 14 21  1  0  0  0  0
 15 22  1  0  0  0  0
M  END
$$$$
