C12H5Cl5
APtclcactv12111704523D 0   0.00000     0.00000
 
 22 23  0  0  0  0  0  0  0  0999 V2000
   -1.1423   -2.1249    0.5764 Cl  0  0  0  0  0  0  0  0  0  0  0  0
   -1.5502   -0.5810   -0.1047 C   0  0  0  0  0  0  0  0  0  0  0  0
   -0.5652    0.3912   -0.2713 C   0  0  0  0  0  0  0  0  0  0  0  0
   -0.9006    1.6292   -0.8191 C   0  0  0  0  0  0  0  0  0  0  0  0
   -2.2052    1.8855   -1.1934 C   0  0  0  0  0  0  0  0  0  0  0  0
   -3.1790    0.9177   -1.0256 C   0  0  0  0  0  0  0  0  0  0  0  0
   -2.8518   -0.3150   -0.4883 C   0  0  0  0  0  0  0  0  0  0  0  0
   -4.0804   -1.5240   -0.2818 Cl  0  0  0  0  0  0  0  0  0  0  0  0
    0.3195    2.8460   -1.0298 Cl  0  0  0  0  0  0  0  0  0  0  0  0
    0.8343    0.1104    0.1329 C   0  0  0  0  0  0  0  0  0  0  0  0
    1.2609    0.4036    1.4277 C   0  0  0  0  0  0  0  0  0  0  0  0
    2.5653    0.1395    1.7989 C   0  0  0  0  0  0  0  0  0  0  0  0
    3.4469   -0.4145    0.8893 C   0  0  0  0  0  0  0  0  0  0  0  0
    3.0288   -0.7073   -0.3978 C   0  0  0  0  0  0  0  0  0  0  0  0
    1.7256   -0.4528   -0.7780 C   0  0  0  0  0  0  0  0  0  0  0  0
    4.1428   -1.4018   -1.5338 Cl  0  0  0  0  0  0  0  0  0  0  0  0
    0.1554    1.0999    2.5708 Cl  0  0  0  0  0  0  0  0  0  0  0  0
   -2.4656    2.8440   -1.6177 H   0  0  0  0  0  0  0  0  0  0  0  0
   -4.1978    1.1231   -1.3194 H   0  0  0  0  0  0  0  0  0  0  0  0
    2.8969    0.3666    2.8013 H   0  0  0  0  0  0  0  0  0  0  0  0
    4.4656   -0.6193    1.1837 H   0  0  0  0  0  0  0  0  0  0  0  0
    1.4005   -0.6816   -1.7822 H   0  0  0  0  0  0  0  0  0  0  0  0
  1  2  1  0  0  0  0
  2  3  2  0  0  0  0
  3  4  1  0  0  0  0
  4  5  2  0  0  0  0
  5  6  1  0  0  0  0
  6  7  2  0  0  0  0
  2  7  1  0  0  0  0
  7  8  1  0  0  0  0
  4  9  1  0  0  0  0
  3 10  1  0  0  0  0
 10 11  2  0  0  0  0
 11 12  1  0  0  0  0
 12 13  2  0  0  0  0
 13 14  1  0  0  0  0
 14 15  2  0  0  0  0
 10 15  1  0  0  0  0
 14 16  1  0  0  0  0
 11 17  1  0  0  0  0
  5 18  1  0  0  0  0
  6 19  1  0  0  0  0
 12 20  1  0  0  0  0
 13 21  1  0  0  0  0
 15 22  1  0  0  0  0
M  END
$$$$
