C12H7Cl3
APtclcactv12111704543D 0   0.00000     0.00000
 
 22 23  0  0  0  0  0  0  0  0999 V2000
   -0.5359   -2.7129   -0.3092 Cl  0  0  0  0  0  0  0  0  0  0  0  0
   -1.3946   -1.2065   -0.2255 C   0  0  0  0  0  0  0  0  0  0  0  0
   -0.6983   -0.0005   -0.2970 C   0  0  0  0  0  0  0  0  0  0  0  0
   -1.3952    1.2054   -0.2291 C   0  0  0  0  0  0  0  0  0  0  0  0
   -2.7697    1.1988   -0.0914 C   0  0  0  0  0  0  0  0  0  0  0  0
   -3.4547   -0.0007   -0.0210 C   0  0  0  0  0  0  0  0  0  0  0  0
   -2.7697   -1.2001   -0.0937 C   0  0  0  0  0  0  0  0  0  0  0  0
   -0.5371    2.7120   -0.3166 Cl  0  0  0  0  0  0  0  0  0  0  0  0
    0.7778   -0.0004   -0.4444 C   0  0  0  0  0  0  0  0  0  0  0  0
    1.5941    0.0017    0.6862 C   0  0  0  0  0  0  0  0  0  0  0  0
    2.9682    0.0013    0.5423 C   0  0  0  0  0  0  0  0  0  0  0  0
    3.5334   -0.0006   -0.7197 C   0  0  0  0  0  0  0  0  0  0  0  0
    2.7279   -0.0022   -1.8445 C   0  0  0  0  0  0  0  0  0  0  0  0
    1.3542   -0.0081   -1.7132 C   0  0  0  0  0  0  0  0  0  0  0  0
    0.8853    0.0053    2.2709 Cl  0  0  0  0  0  0  0  0  0  0  0  0
   -3.3105    2.1321   -0.0383 H   0  0  0  0  0  0  0  0  0  0  0  0
   -4.5293   -0.0008    0.0866 H   0  0  0  0  0  0  0  0  0  0  0  0
   -3.3101   -2.1335   -0.0381 H   0  0  0  0  0  0  0  0  0  0  0  0
    3.6018    0.0029    1.4168 H   0  0  0  0  0  0  0  0  0  0  0  0
    4.6080   -0.0006   -0.8277 H   0  0  0  0  0  0  0  0  0  0  0  0
    3.1751   -0.0034   -2.8275 H   0  0  0  0  0  0  0  0  0  0  0  0
    0.7267   -0.0094   -2.5922 H   0  0  0  0  0  0  0  0  0  0  0  0
  1  2  1  0  0  0  0
  2  3  2  0  0  0  0
  3  4  1  0  0  0  0
  4  5  2  0  0  0  0
  5  6  1  0  0  0  0
  6  7  2  0  0  0  0
  2  7  1  0  0  0  0
  4  8  1  0  0  0  0
  3  9  1  0  0  0  0
  9 10  2  0  0  0  0
 10 11  1  0  0  0  0
 11 12  2  0  0  0  0
 12 13  1  0  0  0  0
 13 14  2  0  0  0  0
  9 14  1  0  0  0  0
 10 15  1  0  0  0  0
  5 16  1  0  0  0  0
  6 17  1  0  0  0  0
  7 18  1  0  0  0  0
 11 19  1  0  0  0  0
 12 20  1  0  0  0  0
 13 21  1  0  0  0  0
 14 22  1  0  0  0  0
M  END
$$$$
