C12H3Cl7
APtclcactv12111704503D 0   0.00000     0.00000
 
 22 23  0  0  0  0  0  0  0  0999 V2000
   -0.3761   -2.2738    0.9346 Cl  0  0  0  0  0  0  0  0  0  0  0  0
   -1.1616   -0.8145    0.4178 C   0  0  0  0  0  0  0  0  0  0  0  0
   -0.4053    0.2520   -0.0665 C   0  0  0  0  0  0  0  0  0  0  0  0
   -1.0417    1.4208   -0.4798 C   0  0  0  0  0  0  0  0  0  0  0  0
   -2.4173    1.5182   -0.4083 C   0  0  0  0  0  0  0  0  0  0  0  0
   -3.1655    0.4562    0.0736 C   0  0  0  0  0  0  0  0  0  0  0  0
   -2.5388   -0.7098    0.4803 C   0  0  0  0  0  0  0  0  0  0  0  0
   -3.4825   -2.0364    1.0829 Cl  0  0  0  0  0  0  0  0  0  0  0  0
   -4.8944    0.5852    0.1615 Cl  0  0  0  0  0  0  0  0  0  0  0  0
   -3.2107    2.9742   -0.9224 Cl  0  0  0  0  0  0  0  0  0  0  0  0
    1.0724    0.1429   -0.1410 C   0  0  0  0  0  0  0  0  0  0  0  0
    1.6630   -0.7836   -0.9995 C   0  0  0  0  0  0  0  0  0  0  0  0
    3.0394   -0.8813   -1.0653 C   0  0  0  0  0  0  0  0  0  0  0  0
    3.8317   -0.0619   -0.2808 C   0  0  0  0  0  0  0  0  0  0  0  0
    3.2496    0.8605    0.5740 C   0  0  0  0  0  0  0  0  0  0  0  0
    1.8748    0.9701    0.6424 C   0  0  0  0  0  0  0  0  0  0  0  0
    4.2504    1.8849    1.5551 Cl  0  0  0  0  0  0  0  0  0  0  0  0
    5.5608   -0.1903   -0.3671 Cl  0  0  0  0  0  0  0  0  0  0  0  0
    0.6703   -1.8131   -1.9836 Cl  0  0  0  0  0  0  0  0  0  0  0  0
   -0.4597    2.2495   -0.8553 H   0  0  0  0  0  0  0  0  0  0  0  0
    3.4978   -1.5986   -1.7299 H   0  0  0  0  0  0  0  0  0  0  0  0
    1.4220    1.6896    1.3086 H   0  0  0  0  0  0  0  0  0  0  0  0
  1  2  1  0  0  0  0
  2  3  2  0  0  0  0
  3  4  1  0  0  0  0
  4  5  2  0  0  0  0
  5  6  1  0  0  0  0
  6  7  2  0  0  0  0
  2  7  1  0  0  0  0
  7  8  1  0  0  0  0
  6  9  1  0  0  0  0
  5 10  1  0  0  0  0
  3 11  1  0  0  0  0
 11 12  2  0  0  0  0
 12 13  1  0  0  0  0
 13 14  2  0  0  0  0
 14 15  1  0  0  0  0
 15 16  2  0  0  0  0
 11 16  1  0  0  0  0
 15 17  1  0  0  0  0
 14 18  1  0  0  0  0
 12 19  1  0  0  0  0
  4 20  1  0  0  0  0
 13 21  1  0  0  0  0
 16 22  1  0  0  0  0
M  END
$$$$
