C12H5Br5
APtclcactv12111704513D 0   0.00000     0.00000
 
 22 23  0  0  0  0  0  0  0  0999 V2000
    0.5379   -2.3982    1.4577 Br  0  0  0  0  0  0  0  0  0  0  0  0
   -0.5410   -1.0145    0.7526 C   0  0  0  0  0  0  0  0  0  0  0  0
    0.0357    0.0028   -0.0064 C   0  0  0  0  0  0  0  0  0  0  0  0
   -0.7649    1.0193   -0.5235 C   0  0  0  0  0  0  0  0  0  0  0  0
   -2.1243    1.0144   -0.2822 C   0  0  0  0  0  0  0  0  0  0  0  0
   -2.6926    0.0013    0.4725 C   0  0  0  0  0  0  0  0  0  0  0  0
   -1.9028   -1.0131    0.9838 C   0  0  0  0  0  0  0  0  0  0  0  0
   -4.5551    0.0012    0.7996 Br  0  0  0  0  0  0  0  0  0  0  0  0
   -3.2123    2.3934   -0.9827 Br  0  0  0  0  0  0  0  0  0  0  0  0
    1.4972    0.0035   -0.2622 C   0  0  0  0  0  0  0  0  0  0  0  0
    2.0751   -1.0134   -1.0209 C   0  0  0  0  0  0  0  0  0  0  0  0
    3.4362   -1.0076   -1.2564 C   0  0  0  0  0  0  0  0  0  0  0  0
    4.2252    0.0042   -0.7411 C   0  0  0  0  0  0  0  0  0  0  0  0
    3.6567    1.0165    0.0130 C   0  0  0  0  0  0  0  0  0  0  0  0
    2.2963    1.0235    0.2502 C   0  0  0  0  0  0  0  0  0  0  0  0
    4.7439    2.3960    0.7136 Br  0  0  0  0  0  0  0  0  0  0  0  0
    0.9977   -2.3983   -1.7260 Br  0  0  0  0  0  0  0  0  0  0  0  0
   -0.3228    1.8098   -1.1118 H   0  0  0  0  0  0  0  0  0  0  0  0
   -2.3506   -1.8009    1.5714 H   0  0  0  0  0  0  0  0  0  0  0  0
    3.8850   -1.7950   -1.8437 H   0  0  0  0  0  0  0  0  0  0  0  0
    5.2890    0.0047   -0.9273 H   0  0  0  0  0  0  0  0  0  0  0  0
    1.8538    1.8136    0.8387 H   0  0  0  0  0  0  0  0  0  0  0  0
  1  2  1  0  0  0  0
  2  3  2  0  0  0  0
  3  4  1  0  0  0  0
  4  5  2  0  0  0  0
  5  6  1  0  0  0  0
  6  7  2  0  0  0  0
  2  7  1  0  0  0  0
  6  8  1  0  0  0  0
  5  9  1  0  0  0  0
  3 10  1  0  0  0  0
 10 11  2  0  0  0  0
 11 12  1  0  0  0  0
 12 13  2  0  0  0  0
 13 14  1  0  0  0  0
 14 15  2  0  0  0  0
 10 15  1  0  0  0  0
 14 16  1  0  0  0  0
 11 17  1  0  0  0  0
  4 18  1  0  0  0  0
  7 19  1  0  0  0  0
 12 20  1  0  0  0  0
 13 21  1  0  0  0  0
 15 22  1  0  0  0  0
M  END
$$$$
