C12H4Cl6
APtclcactv12111704513D 0   0.00000     0.00000
 
 22 23  0  0  0  0  0  0  0  0999 V2000
   -0.3811   -2.3895    0.4044 Cl  0  0  0  0  0  0  0  0  0  0  0  0
   -1.0059   -0.8161    0.0203 C   0  0  0  0  0  0  0  0  0  0  0  0
   -0.1426    0.2747   -0.0725 C   0  0  0  0  0  0  0  0  0  0  0  0
   -0.6513    1.5361   -0.3814 C   0  0  0  0  0  0  0  0  0  0  0  0
   -2.0062    1.6989   -0.5937 C   0  0  0  0  0  0  0  0  0  0  0  0
   -2.8597    0.6130   -0.5005 C   0  0  0  0  0  0  0  0  0  0  0  0
   -2.3597   -0.6432   -0.1997 C   0  0  0  0  0  0  0  0  0  0  0  0
   -3.4366   -2.0000   -0.0852 Cl  0  0  0  0  0  0  0  0  0  0  0  0
   -4.5617    0.8251   -0.7687 Cl  0  0  0  0  0  0  0  0  0  0  0  0
    0.4169    2.8995   -0.4983 Cl  0  0  0  0  0  0  0  0  0  0  0  0
    1.3119    0.0945    0.1570 C   0  0  0  0  0  0  0  0  0  0  0  0
    1.8405    0.2341    1.4397 C   0  0  0  0  0  0  0  0  0  0  0  0
    3.1958    0.0646    1.6478 C   0  0  0  0  0  0  0  0  0  0  0  0
    4.0276   -0.2423    0.5868 C   0  0  0  0  0  0  0  0  0  0  0  0
    3.5082   -0.3816   -0.6891 C   0  0  0  0  0  0  0  0  0  0  0  0
    2.1540   -0.2206   -0.9076 C   0  0  0  0  0  0  0  0  0  0  0  0
    4.5601   -0.7660   -2.0156 Cl  0  0  0  0  0  0  0  0  0  0  0  0
    0.7978    0.6205    2.7728 Cl  0  0  0  0  0  0  0  0  0  0  0  0
   -2.4007    2.6754   -0.8326 H   0  0  0  0  0  0  0  0  0  0  0  0
    3.6064    0.1725    2.6408 H   0  0  0  0  0  0  0  0  0  0  0  0
    5.0865   -0.3735    0.7539 H   0  0  0  0  0  0  0  0  0  0  0  0
    1.7498   -0.3299   -1.9031 H   0  0  0  0  0  0  0  0  0  0  0  0
  1  2  1  0  0  0  0
  2  3  2  0  0  0  0
  3  4  1  0  0  0  0
  4  5  2  0  0  0  0
  5  6  1  0  0  0  0
  6  7  2  0  0  0  0
  2  7  1  0  0  0  0
  7  8  1  0  0  0  0
  6  9  1  0  0  0  0
  4 10  1  0  0  0  0
  3 11  1  0  0  0  0
 11 12  2  0  0  0  0
 12 13  1  0  0  0  0
 13 14  2  0  0  0  0
 14 15  1  0  0  0  0
 15 16  2  0  0  0  0
 11 16  1  0  0  0  0
 15 17  1  0  0  0  0
 12 18  1  0  0  0  0
  5 19  1  0  0  0  0
 13 20  1  0  0  0  0
 14 21  1  0  0  0  0
 16 22  1  0  0  0  0
M  END
$$$$
