C12H6Cl4
APtclcactv12111704533D 0   0.00000     0.00000
 
 22 23  0  0  0  0  0  0  0  0999 V2000
   -0.6839   -0.0262   -2.6302 Cl  0  0  0  0  0  0  0  0  0  0  0  0
    0.6222   -0.0151   -1.4867 C   0  0  0  0  0  0  0  0  0  0  0  0
    0.3527   -0.0014   -0.1187 C   0  0  0  0  0  0  0  0  0  0  0  0
    1.4059    0.0074    0.7936 C   0  0  0  0  0  0  0  0  0  0  0  0
    2.7100    0.0026    0.3388 C   0  0  0  0  0  0  0  0  0  0  0  0
    2.9718   -0.0110   -1.0208 C   0  0  0  0  0  0  0  0  0  0  0  0
    1.9306   -0.0256   -1.9304 C   0  0  0  0  0  0  0  0  0  0  0  0
    4.0235    0.0143    1.4739 Cl  0  0  0  0  0  0  0  0  0  0  0  0
   -1.0502    0.0042    0.3638 C   0  0  0  0  0  0  0  0  0  0  0  0
   -1.7114    1.2127    0.5795 C   0  0  0  0  0  0  0  0  0  0  0  0
   -3.0179    1.2113    1.0284 C   0  0  0  0  0  0  0  0  0  0  0  0
   -3.6699    0.0146    1.2642 C   0  0  0  0  0  0  0  0  0  0  0  0
   -3.0193   -1.1873    1.0521 C   0  0  0  0  0  0  0  0  0  0  0  0
   -1.7147   -1.1991    0.5979 C   0  0  0  0  0  0  0  0  0  0  0  0
   -0.8999   -2.7088    0.3321 Cl  0  0  0  0  0  0  0  0  0  0  0  0
   -0.8944    2.7159    0.2852 Cl  0  0  0  0  0  0  0  0  0  0  0  0
    1.2029    0.0184    1.8543 H   0  0  0  0  0  0  0  0  0  0  0  0
    3.9931   -0.0143   -1.3720 H   0  0  0  0  0  0  0  0  0  0  0  0
    2.1405   -0.0366   -2.9897 H   0  0  0  0  0  0  0  0  0  0  0  0
   -3.5312    2.1467    1.1958 H   0  0  0  0  0  0  0  0  0  0  0  0
   -4.6911    0.0187    1.6157 H   0  0  0  0  0  0  0  0  0  0  0  0
   -3.5337   -2.1186    1.2380 H   0  0  0  0  0  0  0  0  0  0  0  0
  1  2  1  0  0  0  0
  2  3  2  0  0  0  0
  3  4  1  0  0  0  0
  4  5  2  0  0  0  0
  5  6  1  0  0  0  0
  6  7  2  0  0  0  0
  2  7  1  0  0  0  0
  5  8  1  0  0  0  0
  3  9  1  0  0  0  0
  9 10  2  0  0  0  0
 10 11  1  0  0  0  0
 11 12  2  0  0  0  0
 12 13  1  0  0  0  0
 13 14  2  0  0  0  0
  9 14  1  0  0  0  0
 14 15  1  0  0  0  0
 10 16  1  0  0  0  0
  4 17  1  0  0  0  0
  6 18  1  0  0  0  0
  7 19  1  0  0  0  0
 11 20  1  0  0  0  0
 12 21  1  0  0  0  0
 13 22  1  0  0  0  0
M  END
$$$$
