C12H4Cl6
APtclcactv12111704513D 0   0.00000     0.00000
 
 22 23  0  0  0  0  0  0  0  0999 V2000
   -0.9265   -1.5192    1.4056 Cl  0  0  0  0  0  0  0  0  0  0  0  0
   -1.5280   -0.2461    0.3901 C   0  0  0  0  0  0  0  0  0  0  0  0
   -0.6433    0.5206   -0.3670 C   0  0  0  0  0  0  0  0  0  0  0  0
   -1.1327    1.5412   -1.1802 C   0  0  0  0  0  0  0  0  0  0  0  0
   -2.4892    1.7887   -1.2329 C   0  0  0  0  0  0  0  0  0  0  0  0
   -3.3650    1.0257   -0.4794 C   0  0  0  0  0  0  0  0  0  0  0  0
   -2.8858    0.0060    0.3260 C   0  0  0  0  0  0  0  0  0  0  0  0
   -3.9899   -0.9469    1.2675 Cl  0  0  0  0  0  0  0  0  0  0  0  0
   -5.0702    1.3433   -0.5504 Cl  0  0  0  0  0  0  0  0  0  0  0  0
    0.8144    0.2513   -0.3069 C   0  0  0  0  0  0  0  0  0  0  0  0
    1.3218   -0.9602   -0.7750 C   0  0  0  0  0  0  0  0  0  0  0  0
    2.6800   -1.2060   -0.7173 C   0  0  0  0  0  0  0  0  0  0  0  0
    3.5365   -0.2524   -0.1961 C   0  0  0  0  0  0  0  0  0  0  0  0
    3.0371    0.9532    0.2704 C   0  0  0  0  0  0  0  0  0  0  0  0
    1.6817    1.2106    0.2122 C   0  0  0  0  0  0  0  0  0  0  0  0
    4.1180    2.1444    0.9234 Cl  0  0  0  0  0  0  0  0  0  0  0  0
    5.2422   -0.5674   -0.1258 Cl  0  0  0  0  0  0  0  0  0  0  0  0
    0.2485   -2.1579   -1.4287 Cl  0  0  0  0  0  0  0  0  0  0  0  0
   -0.4511    2.1379   -1.7682 H   0  0  0  0  0  0  0  0  0  0  0  0
   -2.8685    2.5795   -1.8630 H   0  0  0  0  0  0  0  0  0  0  0  0
    3.0740   -2.1442   -1.0793 H   0  0  0  0  0  0  0  0  0  0  0  0
    1.2935    2.1505    0.5760 H   0  0  0  0  0  0  0  0  0  0  0  0
  1  2  1  0  0  0  0
  2  3  2  0  0  0  0
  3  4  1  0  0  0  0
  4  5  2  0  0  0  0
  5  6  1  0  0  0  0
  6  7  2  0  0  0  0
  2  7  1  0  0  0  0
  7  8  1  0  0  0  0
  6  9  1  0  0  0  0
  3 10  1  0  0  0  0
 10 11  2  0  0  0  0
 11 12  1  0  0  0  0
 12 13  2  0  0  0  0
 13 14  1  0  0  0  0
 14 15  2  0  0  0  0
 10 15  1  0  0  0  0
 14 16  1  0  0  0  0
 13 17  1  0  0  0  0
 11 18  1  0  0  0  0
  4 19  1  0  0  0  0
  5 20  1  0  0  0  0
 12 21  1  0  0  0  0
 15 22  1  0  0  0  0
M  END
$$$$
