C12H3Cl7
APtclcactv12111704503D 0   0.00000     0.00000
 
 22 23  0  0  0  0  0  0  0  0999 V2000
    0.1494   -2.7129   -0.5131 Cl  0  0  0  0  0  0  0  0  0  0  0  0
   -0.6951   -1.2066   -0.3356 C   0  0  0  0  0  0  0  0  0  0  0  0
   -0.0106   -0.0007   -0.4824 C   0  0  0  0  0  0  0  0  0  0  0  0
   -0.6947    1.2058   -0.3390 C   0  0  0  0  0  0  0  0  0  0  0  0
   -2.0470    1.2011   -0.0524 C   0  0  0  0  0  0  0  0  0  0  0  0
   -2.7224    0.0005    0.0925 C   0  0  0  0  0  0  0  0  0  0  0  0
   -2.0484   -1.2006   -0.0541 C   0  0  0  0  0  0  0  0  0  0  0  0
   -2.9020   -2.7012    0.1290 Cl  0  0  0  0  0  0  0  0  0  0  0  0
   -4.4205    0.0013    0.4530 Cl  0  0  0  0  0  0  0  0  0  0  0  0
   -2.9000    2.7023    0.1270 Cl  0  0  0  0  0  0  0  0  0  0  0  0
    0.1505    2.7114   -0.5197 Cl  0  0  0  0  0  0  0  0  0  0  0  0
    1.4407   -0.0013   -0.7895 C   0  0  0  0  0  0  0  0  0  0  0  0
    2.3749    0.0002    0.2454 C   0  0  0  0  0  0  0  0  0  0  0  0
    3.7262   -0.0004   -0.0477 C   0  0  0  0  0  0  0  0  0  0  0  0
    4.1504   -0.0025   -1.3649 C   0  0  0  0  0  0  0  0  0  0  0  0
    3.2265   -0.0040   -2.3945 C   0  0  0  0  0  0  0  0  0  0  0  0
    1.8754   -0.0093   -2.1137 C   0  0  0  0  0  0  0  0  0  0  0  0
    4.8922    0.0022    1.2385 Cl  0  0  0  0  0  0  0  0  0  0  0  0
    1.8429    0.0035    1.8978 Cl  0  0  0  0  0  0  0  0  0  0  0  0
    5.2067   -0.0026   -1.5900 H   0  0  0  0  0  0  0  0  0  0  0  0
    3.5634   -0.0053   -3.4206 H   0  0  0  0  0  0  0  0  0  0  0  0
    1.1557   -0.0105   -2.9190 H   0  0  0  0  0  0  0  0  0  0  0  0
  1  2  1  0  0  0  0
  2  3  2  0  0  0  0
  3  4  1  0  0  0  0
  4  5  2  0  0  0  0
  5  6  1  0  0  0  0
  6  7  2  0  0  0  0
  2  7  1  0  0  0  0
  7  8  1  0  0  0  0
  6  9  1  0  0  0  0
  5 10  1  0  0  0  0
  4 11  1  0  0  0  0
  3 12  1  0  0  0  0
 12 13  2  0  0  0  0
 13 14  1  0  0  0  0
 14 15  2  0  0  0  0
 15 16  1  0  0  0  0
 16 17  2  0  0  0  0
 12 17  1  0  0  0  0
 14 18  1  0  0  0  0
 13 19  1  0  0  0  0
 15 20  1  0  0  0  0
 16 21  1  0  0  0  0
 17 22  1  0  0  0  0
M  END
$$$$
