C12H6Cl4
APtclcactv12111704533D 0   0.00000     0.00000
 
 22 23  0  0  0  0  0  0  0  0999 V2000
   -0.6213   -1.5016    1.7962 Cl  0  0  0  0  0  0  0  0  0  0  0  0
   -1.3232   -0.3578    0.6950 C   0  0  0  0  0  0  0  0  0  0  0  0
   -0.5170    0.3116   -0.2250 C   0  0  0  0  0  0  0  0  0  0  0  0
   -1.0870    1.2282   -1.1065 C   0  0  0  0  0  0  0  0  0  0  0  0
   -2.4449    1.4691   -1.0652 C   0  0  0  0  0  0  0  0  0  0  0  0
   -3.2418    0.8025   -0.1497 C   0  0  0  0  0  0  0  0  0  0  0  0
   -2.6824   -0.1131    0.7244 C   0  0  0  0  0  0  0  0  0  0  0  0
   -4.9494    1.1115   -0.1028 Cl  0  0  0  0  0  0  0  0  0  0  0  0
    0.9427    0.0492   -0.2649 C   0  0  0  0  0  0  0  0  0  0  0  0
    1.4176   -1.2102   -0.6290 C   0  0  0  0  0  0  0  0  0  0  0  0
    2.7780   -1.4490   -0.6644 C   0  0  0  0  0  0  0  0  0  0  0  0
    3.6679   -0.4419   -0.3398 C   0  0  0  0  0  0  0  0  0  0  0  0
    3.2019    0.8105    0.0229 C   0  0  0  0  0  0  0  0  0  0  0  0
    1.8442    1.0621    0.0557 C   0  0  0  0  0  0  0  0  0  0  0  0
    4.3263    2.0691    0.4295 Cl  0  0  0  0  0  0  0  0  0  0  0  0
    0.3017   -2.4761   -1.0364 Cl  0  0  0  0  0  0  0  0  0  0  0  0
   -0.4667    1.7494   -1.8206 H   0  0  0  0  0  0  0  0  0  0  0  0
   -2.8872    2.1793   -1.7481 H   0  0  0  0  0  0  0  0  0  0  0  0
   -3.3081   -0.6304    1.4366 H   0  0  0  0  0  0  0  0  0  0  0  0
    3.1470   -2.4242   -0.9459 H   0  0  0  0  0  0  0  0  0  0  0  0
    4.7305   -0.6328   -0.3688 H   0  0  0  0  0  0  0  0  0  0  0  0
    1.4818    2.0394    0.3387 H   0  0  0  0  0  0  0  0  0  0  0  0
  1  2  1  0  0  0  0
  2  3  2  0  0  0  0
  3  4  1  0  0  0  0
  4  5  2  0  0  0  0
  5  6  1  0  0  0  0
  6  7  2  0  0  0  0
  2  7  1  0  0  0  0
  6  8  1  0  0  0  0
  3  9  1  0  0  0  0
  9 10  2  0  0  0  0
 10 11  1  0  0  0  0
 11 12  2  0  0  0  0
 12 13  1  0  0  0  0
 13 14  2  0  0  0  0
  9 14  1  0  0  0  0
 13 15  1  0  0  0  0
 10 16  1  0  0  0  0
  4 17  1  0  0  0  0
  5 18  1  0  0  0  0
  7 19  1  0  0  0  0
 11 20  1  0  0  0  0
 12 21  1  0  0  0  0
 14 22  1  0  0  0  0
M  END
$$$$
