C12H3Cl7
APtclcactv12111704503D 0   0.00000     0.00000
 
 22 23  0  0  0  0  0  0  0  0999 V2000
   -0.6604   -2.7123   -0.0682 Cl  0  0  0  0  0  0  0  0  0  0  0  0
   -1.5187   -1.2062   -0.1621 C   0  0  0  0  0  0  0  0  0  0  0  0
   -0.8229   -0.0001   -0.0892 C   0  0  0  0  0  0  0  0  0  0  0  0
   -1.5186    1.2058   -0.1653 C   0  0  0  0  0  0  0  0  0  0  0  0
   -2.8933    1.1997   -0.3124 C   0  0  0  0  0  0  0  0  0  0  0  0
   -3.5788   -0.0005   -0.3837 C   0  0  0  0  0  0  0  0  0  0  0  0
   -2.8927   -1.2005   -0.3150 C   0  0  0  0  0  0  0  0  0  0  0  0
   -3.7607   -2.7012   -0.4052 Cl  0  0  0  0  0  0  0  0  0  0  0  0
   -3.7611    2.7002   -0.4073 Cl  0  0  0  0  0  0  0  0  0  0  0  0
   -0.6604    2.7121   -0.0748 Cl  0  0  0  0  0  0  0  0  0  0  0  0
    0.6521    0.0000    0.0691 C   0  0  0  0  0  0  0  0  0  0  0  0
    1.2189    0.0019    1.3432 C   0  0  0  0  0  0  0  0  0  0  0  0
    2.5930    0.0021    1.4854 C   0  0  0  0  0  0  0  0  0  0  0  0
    3.4067    0.0004    0.3661 C   0  0  0  0  0  0  0  0  0  0  0  0
    2.8482   -0.0010   -0.9022 C   0  0  0  0  0  0  0  0  0  0  0  0
    1.4759   -0.0075   -1.0548 C   0  0  0  0  0  0  0  0  0  0  0  0
    3.8758   -0.0020   -2.3014 Cl  0  0  0  0  0  0  0  0  0  0  0  0
    5.1327    0.0007    0.5514 Cl  0  0  0  0  0  0  0  0  0  0  0  0
    0.1994    0.0046    2.7483 Cl  0  0  0  0  0  0  0  0  0  0  0  0
   -4.6528   -0.0006   -0.4983 H   0  0  0  0  0  0  0  0  0  0  0  0
    3.0330    0.0040    2.4717 H   0  0  0  0  0  0  0  0  0  0  0  0
    1.0416   -0.0086   -2.0437 H   0  0  0  0  0  0  0  0  0  0  0  0
  1  2  1  0  0  0  0
  2  3  2  0  0  0  0
  3  4  1  0  0  0  0
  4  5  2  0  0  0  0
  5  6  1  0  0  0  0
  6  7  2  0  0  0  0
  2  7  1  0  0  0  0
  7  8  1  0  0  0  0
  5  9  1  0  0  0  0
  4 10  1  0  0  0  0
  3 11  1  0  0  0  0
 11 12  2  0  0  0  0
 12 13  1  0  0  0  0
 13 14  2  0  0  0  0
 14 15  1  0  0  0  0
 15 16  2  0  0  0  0
 11 16  1  0  0  0  0
 15 17  1  0  0  0  0
 14 18  1  0  0  0  0
 12 19  1  0  0  0  0
  6 20  1  0  0  0  0
 13 21  1  0  0  0  0
 16 22  1  0  0  0  0
M  END
$$$$
