C12H5Cl5
APtclcactv12111704523D 0   0.00000     0.00000
 
 22 23  0  0  0  0  0  0  0  0999 V2000
    0.1672   -2.2860    1.4468 Cl  0  0  0  0  0  0  0  0  0  0  0  0
   -0.7941   -1.0154    0.7575 C   0  0  0  0  0  0  0  0  0  0  0  0
   -0.1846    0.0021    0.0243 C   0  0  0  0  0  0  0  0  0  0  0  0
   -0.9618    1.0189   -0.5269 C   0  0  0  0  0  0  0  0  0  0  0  0
   -2.3306    1.0145   -0.3448 C   0  0  0  0  0  0  0  0  0  0  0  0
   -2.9316    0.0010    0.3846 C   0  0  0  0  0  0  0  0  0  0  0  0
   -2.1648   -1.0138    0.9296 C   0  0  0  0  0  0  0  0  0  0  0  0
   -4.6529    0.0010    0.6100 Cl  0  0  0  0  0  0  0  0  0  0  0  0
   -3.3001    2.2808   -1.0304 Cl  0  0  0  0  0  0  0  0  0  0  0  0
    1.2865    0.0024   -0.1679 C   0  0  0  0  0  0  0  0  0  0  0  0
    1.8966   -1.0146   -0.9012 C   0  0  0  0  0  0  0  0  0  0  0  0
    3.2669   -1.0091   -1.0774 C   0  0  0  0  0  0  0  0  0  0  0  0
    4.0330    0.0023   -0.5282 C   0  0  0  0  0  0  0  0  0  0  0  0
    3.4325    1.0147    0.2009 C   0  0  0  0  0  0  0  0  0  0  0  0
    2.0629    1.0221    0.3789 C   0  0  0  0  0  0  0  0  0  0  0  0
    4.4021    2.2808    0.8869 Cl  0  0  0  0  0  0  0  0  0  0  0  0
    0.9362   -2.2857   -1.5910 Cl  0  0  0  0  0  0  0  0  0  0  0  0
   -0.4943    1.8094   -1.0952 H   0  0  0  0  0  0  0  0  0  0  0  0
   -2.6378   -1.8015    1.4973 H   0  0  0  0  0  0  0  0  0  0  0  0
    3.7405   -1.7965   -1.6449 H   0  0  0  0  0  0  0  0  0  0  0  0
    5.1039    0.0025   -0.6681 H   0  0  0  0  0  0  0  0  0  0  0  0
    1.5955    1.8122    0.9478 H   0  0  0  0  0  0  0  0  0  0  0  0
  1  2  1  0  0  0  0
  2  3  2  0  0  0  0
  3  4  1  0  0  0  0
  4  5  2  0  0  0  0
  5  6  1  0  0  0  0
  6  7  2  0  0  0  0
  2  7  1  0  0  0  0
  6  8  1  0  0  0  0
  5  9  1  0  0  0  0
  3 10  1  0  0  0  0
 10 11  2  0  0  0  0
 11 12  1  0  0  0  0
 12 13  2  0  0  0  0
 13 14  1  0  0  0  0
 14 15  2  0  0  0  0
 10 15  1  0  0  0  0
 14 16  1  0  0  0  0
 11 17  1  0  0  0  0
  4 18  1  0  0  0  0
  7 19  1  0  0  0  0
 12 20  1  0  0  0  0
 13 21  1  0  0  0  0
 15 22  1  0  0  0  0
M  END
$$$$
