C12H6Cl4
APtclcactv12111704533D 0   0.00000     0.00000
 
 22 23  0  0  0  0  0  0  0  0999 V2000
   -0.2813   -2.2854    1.5419 Cl  0  0  0  0  0  0  0  0  0  0  0  0
   -1.2863   -1.0145    0.9188 C   0  0  0  0  0  0  0  0  0  0  0  0
   -0.7273    0.0026    0.1459 C   0  0  0  0  0  0  0  0  0  0  0  0
   -1.5400    1.0194   -0.3514 C   0  0  0  0  0  0  0  0  0  0  0  0
   -2.8935    1.0147   -0.0767 C   0  0  0  0  0  0  0  0  0  0  0  0
   -3.4431    0.0025    0.6917 C   0  0  0  0  0  0  0  0  0  0  0  0
   -2.6424   -1.0120    1.1829 C   0  0  0  0  0  0  0  0  0  0  0  0
   -3.9075    2.2807   -0.6955 Cl  0  0  0  0  0  0  0  0  0  0  0  0
    0.7274    0.0025   -0.1454 C   0  0  0  0  0  0  0  0  0  0  0  0
    1.2862   -1.0147   -0.9182 C   0  0  0  0  0  0  0  0  0  0  0  0
    2.6415   -1.0096   -1.1867 C   0  0  0  0  0  0  0  0  0  0  0  0
    3.4434    0.0015   -0.6904 C   0  0  0  0  0  0  0  0  0  0  0  0
    2.8938    1.0142    0.0775 C   0  0  0  0  0  0  0  0  0  0  0  0
    1.5393    1.0221    0.3474 C   0  0  0  0  0  0  0  0  0  0  0  0
    3.9080    2.2798    0.6966 Cl  0  0  0  0  0  0  0  0  0  0  0  0
    0.2811   -2.2856   -1.5411 Cl  0  0  0  0  0  0  0  0  0  0  0  0
   -1.1122    1.8098   -0.9503 H   0  0  0  0  0  0  0  0  0  0  0  0
   -4.5019    0.0031    0.9046 H   0  0  0  0  0  0  0  0  0  0  0  0
   -3.0764   -1.7993    1.7815 H   0  0  0  0  0  0  0  0  0  0  0  0
    3.0754   -1.7970   -1.7852 H   0  0  0  0  0  0  0  0  0  0  0  0
    4.5024    0.0012   -0.9022 H   0  0  0  0  0  0  0  0  0  0  0  0
    1.1116    1.8126    0.9461 H   0  0  0  0  0  0  0  0  0  0  0  0
  1  2  1  0  0  0  0
  2  3  2  0  0  0  0
  3  4  1  0  0  0  0
  4  5  2  0  0  0  0
  5  6  1  0  0  0  0
  6  7  2  0  0  0  0
  2  7  1  0  0  0  0
  5  8  1  0  0  0  0
  3  9  1  0  0  0  0
  9 10  2  0  0  0  0
 10 11  1  0  0  0  0
 11 12  2  0  0  0  0
 12 13  1  0  0  0  0
 13 14  2  0  0  0  0
  9 14  1  0  0  0  0
 13 15  1  0  0  0  0
 10 16  1  0  0  0  0
  4 17  1  0  0  0  0
  6 18  1  0  0  0  0
  7 19  1  0  0  0  0
 11 20  1  0  0  0  0
 12 21  1  0  0  0  0
 14 22  1  0  0  0  0
M  END
$$$$
