C12H3Cl7
APtclcactv12111704503D 0   0.00000     0.00000
 
 22 23  0  0  0  0  0  0  0  0999 V2000
   -0.0906   -1.8930    1.4512 Cl  0  0  0  0  0  0  0  0  0  0  0  0
   -0.9758   -0.6460    0.6294 C   0  0  0  0  0  0  0  0  0  0  0  0
   -0.2945    0.3925   -0.0039 C   0  0  0  0  0  0  0  0  0  0  0  0
   -1.0106    1.3906   -0.6618 C   0  0  0  0  0  0  0  0  0  0  0  0
   -2.3906    1.3473   -0.6841 C   0  0  0  0  0  0  0  0  0  0  0  0
   -3.0641    0.3135   -0.0536 C   0  0  0  0  0  0  0  0  0  0  0  0
   -2.3574   -0.6840    0.5968 C   0  0  0  0  0  0  0  0  0  0  0  0
   -3.2078   -1.9765    1.3842 Cl  0  0  0  0  0  0  0  0  0  0  0  0
   -4.7991    0.2649   -0.0853 Cl  0  0  0  0  0  0  0  0  0  0  0  0
   -3.2834    2.5907   -1.5031 Cl  0  0  0  0  0  0  0  0  0  0  0  0
    1.1883    0.4352    0.0231 C   0  0  0  0  0  0  0  0  0  0  0  0
    1.9284   -0.5597   -0.6140 C   0  0  0  0  0  0  0  0  0  0  0  0
    3.3102   -0.5146   -0.5860 C   0  0  0  0  0  0  0  0  0  0  0  0
    3.9576    0.5154    0.0732 C   0  0  0  0  0  0  0  0  0  0  0  0
    3.2266    1.5056    0.7072 C   0  0  0  0  0  0  0  0  0  0  0  0
    1.8461    1.4730    0.6804 C   0  0  0  0  0  0  0  0  0  0  0  0
    4.0469    2.7939    1.5325 Cl  0  0  0  0  0  0  0  0  0  0  0  0
    4.2341   -1.7523   -1.3786 Cl  0  0  0  0  0  0  0  0  0  0  0  0
    1.1170   -1.8530   -1.4403 Cl  0  0  0  0  0  0  0  0  0  0  0  0
   -0.4869    2.1972   -1.1534 H   0  0  0  0  0  0  0  0  0  0  0  0
    5.0370    0.5469    0.0935 H   0  0  0  0  0  0  0  0  0  0  0  0
    1.2772    2.2463    1.1752 H   0  0  0  0  0  0  0  0  0  0  0  0
  1  2  1  0  0  0  0
  2  3  2  0  0  0  0
  3  4  1  0  0  0  0
  4  5  2  0  0  0  0
  5  6  1  0  0  0  0
  6  7  2  0  0  0  0
  2  7  1  0  0  0  0
  7  8  1  0  0  0  0
  6  9  1  0  0  0  0
  5 10  1  0  0  0  0
  3 11  1  0  0  0  0
 11 12  2  0  0  0  0
 12 13  1  0  0  0  0
 13 14  2  0  0  0  0
 14 15  1  0  0  0  0
 15 16  2  0  0  0  0
 11 16  1  0  0  0  0
 15 17  1  0  0  0  0
 13 18  1  0  0  0  0
 12 19  1  0  0  0  0
  4 20  1  0  0  0  0
 14 21  1  0  0  0  0
 16 22  1  0  0  0  0
M  END
$$$$
