C12H4Cl6
APtclcactv12111704513D 0   0.00000     0.00000
 
 22 23  0  0  0  0  0  0  0  0999 V2000
    0.1791   -2.2713    0.6061 Cl  0  0  0  0  0  0  0  0  0  0  0  0
   -0.7206   -0.8100    0.3438 C   0  0  0  0  0  0  0  0  0  0  0  0
   -0.0514    0.4013    0.1739 C   0  0  0  0  0  0  0  0  0  0  0  0
   -0.7792    1.5710   -0.0362 C   0  0  0  0  0  0  0  0  0  0  0  0
   -2.1588    1.5259   -0.0754 C   0  0  0  0  0  0  0  0  0  0  0  0
   -2.8203    0.3203    0.0939 C   0  0  0  0  0  0  0  0  0  0  0  0
   -2.1019   -0.8460    0.2973 C   0  0  0  0  0  0  0  0  0  0  0  0
   -2.9374   -2.3530    0.5086 Cl  0  0  0  0  0  0  0  0  0  0  0  0
   -4.5549    0.2706    0.0442 Cl  0  0  0  0  0  0  0  0  0  0  0  0
   -3.0662    2.9827   -0.3365 Cl  0  0  0  0  0  0  0  0  0  0  0  0
    1.4309    0.4449    0.2172 C   0  0  0  0  0  0  0  0  0  0  0  0
    2.1790   -0.2094   -0.7610 C   0  0  0  0  0  0  0  0  0  0  0  0
    3.5589   -0.1650   -0.7159 C   0  0  0  0  0  0  0  0  0  0  0  0
    4.1982    0.5271    0.2977 C   0  0  0  0  0  0  0  0  0  0  0  0
    3.4593    1.1778    1.2714 C   0  0  0  0  0  0  0  0  0  0  0  0
    2.0805    1.1446    1.2324 C   0  0  0  0  0  0  0  0  0  0  0  0
    5.9327    0.5793    0.3491 Cl  0  0  0  0  0  0  0  0  0  0  0  0
    1.3777   -1.0783   -2.0325 Cl  0  0  0  0  0  0  0  0  0  0  0  0
   -0.2650    2.5115   -0.1680 H   0  0  0  0  0  0  0  0  0  0  0  0
    4.1397   -0.6715   -1.4726 H   0  0  0  0  0  0  0  0  0  0  0  0
    3.9632    1.7160    2.0606 H   0  0  0  0  0  0  0  0  0  0  0  0
    1.5055    1.6526    1.9925 H   0  0  0  0  0  0  0  0  0  0  0  0
  1  2  1  0  0  0  0
  2  3  2  0  0  0  0
  3  4  1  0  0  0  0
  4  5  2  0  0  0  0
  5  6  1  0  0  0  0
  6  7  2  0  0  0  0
  2  7  1  0  0  0  0
  7  8  1  0  0  0  0
  6  9  1  0  0  0  0
  5 10  1  0  0  0  0
  3 11  1  0  0  0  0
 11 12  2  0  0  0  0
 12 13  1  0  0  0  0
 13 14  2  0  0  0  0
 14 15  1  0  0  0  0
 15 16  2  0  0  0  0
 11 16  1  0  0  0  0
 14 17  1  0  0  0  0
 12 18  1  0  0  0  0
  4 19  1  0  0  0  0
 13 20  1  0  0  0  0
 15 21  1  0  0  0  0
 16 22  1  0  0  0  0
M  END
$$$$
