C12H6Cl4
APtclcactv12111704533D 0   0.00000     0.00000
 
 22 23  0  0  0  0  0  0  0  0999 V2000
   -1.1574   -1.4745    0.9460 Cl  0  0  0  0  0  0  0  0  0  0  0  0
   -1.6812    0.0431    0.2856 C   0  0  0  0  0  0  0  0  0  0  0  0
   -0.7419    0.9915   -0.1169 C   0  0  0  0  0  0  0  0  0  0  0  0
   -1.1699    2.2074   -0.6466 C   0  0  0  0  0  0  0  0  0  0  0  0
   -2.5196    2.4672   -0.7704 C   0  0  0  0  0  0  0  0  0  0  0  0
   -3.4486    1.5237   -0.3700 C   0  0  0  0  0  0  0  0  0  0  0  0
   -3.0310    0.3120    0.1521 C   0  0  0  0  0  0  0  0  0  0  0  0
   -4.2033   -0.8669    0.6517 Cl  0  0  0  0  0  0  0  0  0  0  0  0
    0.7079    0.7075    0.0187 C   0  0  0  0  0  0  0  0  0  0  0  0
    1.2923   -0.3183   -0.7233 C   0  0  0  0  0  0  0  0  0  0  0  0
    2.6429   -0.5779   -0.5933 C   0  0  0  0  0  0  0  0  0  0  0  0
    3.4148    0.1782    0.2714 C   0  0  0  0  0  0  0  0  0  0  0  0
    2.8385    1.1978    1.0102 C   0  0  0  0  0  0  0  0  0  0  0  0
    1.4916    1.4688    0.8838 C   0  0  0  0  0  0  0  0  0  0  0  0
    5.1114   -0.1531    0.4309 Cl  0  0  0  0  0  0  0  0  0  0  0  0
    0.3246   -1.2675   -1.8078 Cl  0  0  0  0  0  0  0  0  0  0  0  0
   -0.4462    2.9455   -0.9595 H   0  0  0  0  0  0  0  0  0  0  0  0
   -2.8513    3.4096   -1.1806 H   0  0  0  0  0  0  0  0  0  0  0  0
   -4.5037    1.7320   -0.4686 H   0  0  0  0  0  0  0  0  0  0  0  0
    3.0970   -1.3722   -1.1671 H   0  0  0  0  0  0  0  0  0  0  0  0
    3.4455    1.7848    1.6835 H   0  0  0  0  0  0  0  0  0  0  0  0
    1.0436    2.2646    1.4605 H   0  0  0  0  0  0  0  0  0  0  0  0
  1  2  1  0  0  0  0
  2  3  2  0  0  0  0
  3  4  1  0  0  0  0
  4  5  2  0  0  0  0
  5  6  1  0  0  0  0
  6  7  2  0  0  0  0
  2  7  1  0  0  0  0
  7  8  1  0  0  0  0
  3  9  1  0  0  0  0
  9 10  2  0  0  0  0
 10 11  1  0  0  0  0
 11 12  2  0  0  0  0
 12 13  1  0  0  0  0
 13 14  2  0  0  0  0
  9 14  1  0  0  0  0
 12 15  1  0  0  0  0
 10 16  1  0  0  0  0
  4 17  1  0  0  0  0
  5 18  1  0  0  0  0
  6 19  1  0  0  0  0
 11 20  1  0  0  0  0
 13 21  1  0  0  0  0
 14 22  1  0  0  0  0
M  END
$$$$
