C12H5Br5O
APtclcactv12111704513D 0   0.00000     0.00000
 
 23 24  0  0  0  0  0  0  0  0999 V2000
    1.6014   -0.0136   -1.2337 C   0  0  0  0  0  0  0  0  0  0  0  0
    2.3962   -0.7121    1.3263 C   0  0  0  0  0  0  0  0  0  0  0  0
   -1.3152    0.9359    0.2105 C   0  0  0  0  0  0  0  0  0  0  0  0
   -3.9061    0.2023   -0.4365 C   0  0  0  0  0  0  0  0  0  0  0  0
   -2.3746    1.7441    0.5761 C   0  0  0  0  0  0  0  0  0  0  0  0
    0.7326   -0.7048   -0.4018 C   0  0  0  0  0  0  0  0  0  0  0  0
    1.1331   -1.0538    0.8807 C   0  0  0  0  0  0  0  0  0  0  0  0
   -1.5499   -0.2433   -0.4809 C   0  0  0  0  0  0  0  0  0  0  0  0
    2.8635    0.3260   -0.7842 C   0  0  0  0  0  0  0  0  0  0  0  0
    3.2609   -0.0230    0.4953 C   0  0  0  0  0  0  0  0  0  0  0  0
   -2.8498   -0.6091   -0.8041 C   0  0  0  0  0  0  0  0  0  0  0  0
   -3.6689    1.3782    0.2532 C   0  0  0  0  0  0  0  0  0  0  0  0
   -0.5091   -1.0394   -0.8417 O   0  0  0  0  0  0  0  0  0  0  0  0
   -0.0483   -1.9965    2.0171 Br  0  0  0  0  0  0  0  0  0  0  0  0
    4.0486    1.2676   -1.9178 Br  0  0  0  0  0  0  0  0  0  0  0  0
    4.9880    0.4436    1.1079 Br  0  0  0  0  0  0  0  0  0  0  0  0
   -3.1742   -2.2164   -1.7461 Br  0  0  0  0  0  0  0  0  0  0  0  0
   -5.1164    2.4866    0.7551 Br  0  0  0  0  0  0  0  0  0  0  0  0
    1.2934    0.2549   -2.2334 H   0  0  0  0  0  0  0  0  0  0  0  0
    2.7080   -0.9831    2.3241 H   0  0  0  0  0  0  0  0  0  0  0  0
   -0.3046    1.2246    0.4590 H   0  0  0  0  0  0  0  0  0  0  0  0
   -4.9174   -0.0813   -0.6878 H   0  0  0  0  0  0  0  0  0  0  0  0
   -2.1920    2.6624    1.1144 H   0  0  0  0  0  0  0  0  0  0  0  0
  7 14  1  0  0  0  0
  9 15  1  0  0  0  0
 10 16  1  0  0  0  0
 11 17  1  0  0  0  0
 12 18  1  0  0  0  0
  6 13  1  0  0  0  0
  8 13  1  0  0  0  0
  6  7  2  0  0  0  0
  1  6  1  0  0  0  0
  2  7  1  0  0  0  0
  8 11  1  0  0  0  0
  3  8  2  0  0  0  0
  9 10  1  0  0  0  0
  1  9  2  0  0  0  0
  2 10  2  0  0  0  0
  4 11  2  0  0  0  0
  3  5  1  0  0  0  0
  4 12  1  0  0  0  0
  5 12  2  0  0  0  0
  1 19  1  0  0  0  0
  2 20  1  0  0  0  0
  3 21  1  0  0  0  0
  4 22  1  0  0  0  0
  5 23  1  0  0  0  0
M  END
$$$$
