C12H4Br6
APtclcactv12111704503D 0   0.00000     0.00000
 
 22 23  0  0  0  0  0  0  0  0999 V2000
   -0.5019   -2.0166    2.0103 Br  0  0  0  0  0  0  0  0  0  0  0  0
   -1.4417   -0.8547    0.8517 C   0  0  0  0  0  0  0  0  0  0  0  0
   -0.7417   -0.0009    0.0002 C   0  0  0  0  0  0  0  0  0  0  0  0
   -1.4411    0.8532   -0.8515 C   0  0  0  0  0  0  0  0  0  0  0  0
   -2.8221    0.8493   -0.8475 C   0  0  0  0  0  0  0  0  0  0  0  0
   -3.5118    0.0001    0.0001 C   0  0  0  0  0  0  0  0  0  0  0  0
   -2.8227   -0.8543    0.8432 C   0  0  0  0  0  0  0  0  0  0  0  0
   -5.4028    0.0009    0.0004 Br  0  0  0  0  0  0  0  0  0  0  0  0
   -0.5005    2.0152   -2.0095 Br  0  0  0  0  0  0  0  0  0  0  0  0
    0.7417   -0.0009    0.0007 C   0  0  0  0  0  0  0  0  0  0  0  0
    1.4417   -0.8527   -0.8529 C   0  0  0  0  0  0  0  0  0  0  0  0
    2.8227   -0.8481   -0.8485 C   0  0  0  0  0  0  0  0  0  0  0  0
    3.5118   -0.0002    0.0010 C   0  0  0  0  0  0  0  0  0  0  0  0
    2.8221    0.8470    0.8507 C   0  0  0  0  0  0  0  0  0  0  0  0
    1.4411    0.8550    0.8506 C   0  0  0  0  0  0  0  0  0  0  0  0
    0.5005    2.0137    2.0118 Br  0  0  0  0  0  0  0  0  0  0  0  0
    5.4028    0.0002    0.0012 Br  0  0  0  0  0  0  0  0  0  0  0  0
    0.5019   -2.0123   -2.0138 Br  0  0  0  0  0  0  0  0  0  0  0  0
   -3.3648    1.5105   -1.5068 H   0  0  0  0  0  0  0  0  0  0  0  0
   -3.3659   -1.5152    1.5024 H   0  0  0  0  0  0  0  0  0  0  0  0
    3.3659   -1.5077   -1.5090 H   0  0  0  0  0  0  0  0  0  0  0  0
    3.3648    1.5064    1.5118 H   0  0  0  0  0  0  0  0  0  0  0  0
  1  2  1  0  0  0  0
  2  3  2  0  0  0  0
  3  4  1  0  0  0  0
  4  5  2  0  0  0  0
  5  6  1  0  0  0  0
  6  7  2  0  0  0  0
  2  7  1  0  0  0  0
  6  8  1  0  0  0  0
  4  9  1  0  0  0  0
  3 10  1  0  0  0  0
 10 11  2  0  0  0  0
 11 12  1  0  0  0  0
 12 13  2  0  0  0  0
 13 14  1  0  0  0  0
 14 15  2  0  0  0  0
 10 15  1  0  0  0  0
 15 16  1  0  0  0  0
 13 17  1  0  0  0  0
 11 18  1  0  0  0  0
  5 19  1  0  0  0  0
  7 20  1  0  0  0  0
 12 21  1  0  0  0  0
 14 22  1  0  0  0  0
M  END
$$$$
