C12H5Cl5
APtclcactv12111704523D 0   0.00000     0.00000
 
 22 23  0  0  0  0  0  0  0  0999 V2000
   -0.4408   -1.5737    1.3786 Cl  0  0  0  0  0  0  0  0  0  0  0  0
   -0.9841   -0.2590    0.3836 C   0  0  0  0  0  0  0  0  0  0  0  0
   -0.0677    0.4689   -0.3741 C   0  0  0  0  0  0  0  0  0  0  0  0
   -0.5105    1.5232   -1.1707 C   0  0  0  0  0  0  0  0  0  0  0  0
   -1.8524    1.8423   -1.2066 C   0  0  0  0  0  0  0  0  0  0  0  0
   -2.7599    1.1178   -0.4526 C   0  0  0  0  0  0  0  0  0  0  0  0
   -2.3273    0.0650    0.3364 C   0  0  0  0  0  0  0  0  0  0  0  0
   -3.4709   -0.8394    1.2788 Cl  0  0  0  0  0  0  0  0  0  0  0  0
   -4.4465    1.5259   -0.5019 Cl  0  0  0  0  0  0  0  0  0  0  0  0
    1.3743    0.1225   -0.3321 C   0  0  0  0  0  0  0  0  0  0  0  0
    1.8128   -1.1084   -0.8188 C   0  0  0  0  0  0  0  0  0  0  0  0
    3.1569   -1.4255   -0.7776 C   0  0  0  0  0  0  0  0  0  0  0  0
    4.0666   -0.5249   -0.2551 C   0  0  0  0  0  0  0  0  0  0  0  0
    3.6368    0.6988    0.2295 C   0  0  0  0  0  0  0  0  0  0  0  0
    2.2962    1.0284    0.1885 C   0  0  0  0  0  0  0  0  0  0  0  0
    4.7859    1.8236    0.8838 Cl  0  0  0  0  0  0  0  0  0  0  0  0
    0.6719   -2.2406   -1.4747 Cl  0  0  0  0  0  0  0  0  0  0  0  0
    0.1959    2.0900   -1.7591 H   0  0  0  0  0  0  0  0  0  0  0  0
   -2.1956    2.6593   -1.8239 H   0  0  0  0  0  0  0  0  0  0  0  0
    3.4976   -2.3788   -1.1540 H   0  0  0  0  0  0  0  0  0  0  0  0
    5.1163   -0.7770   -0.2246 H   0  0  0  0  0  0  0  0  0  0  0  0
    1.9620    1.9832    0.5668 H   0  0  0  0  0  0  0  0  0  0  0  0
  1  2  1  0  0  0  0
  2  3  2  0  0  0  0
  3  4  1  0  0  0  0
  4  5  2  0  0  0  0
  5  6  1  0  0  0  0
  6  7  2  0  0  0  0
  2  7  1  0  0  0  0
  7  8  1  0  0  0  0
  6  9  1  0  0  0  0
  3 10  1  0  0  0  0
 10 11  2  0  0  0  0
 11 12  1  0  0  0  0
 12 13  2  0  0  0  0
 13 14  1  0  0  0  0
 14 15  2  0  0  0  0
 10 15  1  0  0  0  0
 14 16  1  0  0  0  0
 11 17  1  0  0  0  0
  4 18  1  0  0  0  0
  5 19  1  0  0  0  0
 12 20  1  0  0  0  0
 13 21  1  0  0  0  0
 15 22  1  0  0  0  0
M  END
$$$$
