C12H6Cl4
APtclcactv12111704533D 0   0.00000     0.00000
 
 22 23  0  0  0  0  0  0  0  0999 V2000
   -1.2452   -0.9642    1.4623 Cl  0  0  0  0  0  0  0  0  0  0  0  0
   -1.5154    0.2196    0.2217 C   0  0  0  0  0  0  0  0  0  0  0  0
   -0.4572    0.6463   -0.5793 C   0  0  0  0  0  0  0  0  0  0  0  0
   -0.6817    1.5971   -1.5732 C   0  0  0  0  0  0  0  0  0  0  0  0
   -1.9486    2.1114   -1.7601 C   0  0  0  0  0  0  0  0  0  0  0  0
   -2.9960    1.6858   -0.9629 C   0  0  0  0  0  0  0  0  0  0  0  0
   -2.7819    0.7375    0.0219 C   0  0  0  0  0  0  0  0  0  0  0  0
   -4.1018    0.2085    1.0177 Cl  0  0  0  0  0  0  0  0  0  0  0  0
    0.9031    0.0907   -0.3741 C   0  0  0  0  0  0  0  0  0  0  0  0
    1.1500   -1.2609   -0.6117 C   0  0  0  0  0  0  0  0  0  0  0  0
    2.4188   -1.7729   -0.4195 C   0  0  0  0  0  0  0  0  0  0  0  0
    3.4426   -0.9477    0.0077 C   0  0  0  0  0  0  0  0  0  0  0  0
    3.2031    0.3952    0.2451 C   0  0  0  0  0  0  0  0  0  0  0  0
    1.9398    0.9188    0.0511 C   0  0  0  0  0  0  0  0  0  0  0  0
    4.4943    1.4239    0.7819 Cl  0  0  0  0  0  0  0  0  0  0  0  0
   -0.1345   -2.2985   -1.1476 Cl  0  0  0  0  0  0  0  0  0  0  0  0
    0.1348    1.9312   -2.1962 H   0  0  0  0  0  0  0  0  0  0  0  0
   -2.1227    2.8482   -2.5303 H   0  0  0  0  0  0  0  0  0  0  0  0
   -3.9856    2.0917   -1.1129 H   0  0  0  0  0  0  0  0  0  0  0  0
    2.6111   -2.8197   -0.6029 H   0  0  0  0  0  0  0  0  0  0  0  0
    4.4328   -1.3522    0.1570 H   0  0  0  0  0  0  0  0  0  0  0  0
    1.7541    1.9664    0.2364 H   0  0  0  0  0  0  0  0  0  0  0  0
  1  2  1  0  0  0  0
  2  3  2  0  0  0  0
  3  4  1  0  0  0  0
  4  5  2  0  0  0  0
  5  6  1  0  0  0  0
  6  7  2  0  0  0  0
  2  7  1  0  0  0  0
  7  8  1  0  0  0  0
  3  9  1  0  0  0  0
  9 10  2  0  0  0  0
 10 11  1  0  0  0  0
 11 12  2  0  0  0  0
 12 13  1  0  0  0  0
 13 14  2  0  0  0  0
  9 14  1  0  0  0  0
 13 15  1  0  0  0  0
 10 16  1  0  0  0  0
  4 17  1  0  0  0  0
  5 18  1  0  0  0  0
  6 19  1  0  0  0  0
 11 20  1  0  0  0  0
 12 21  1  0  0  0  0
 14 22  1  0  0  0  0
M  END
$$$$
