C12H6Cl4
APtclcactv12111704533D 0   0.00000     0.00000
 
 22 23  0  0  0  0  0  0  0  0999 V2000
   -0.6104   -1.7460    1.4431 Cl  0  0  0  0  0  0  0  0  0  0  0  0
   -1.4554   -0.4749    0.6162 C   0  0  0  0  0  0  0  0  0  0  0  0
   -0.7416    0.5425   -0.0161 C   0  0  0  0  0  0  0  0  0  0  0  0
   -1.4263    1.5596   -0.6786 C   0  0  0  0  0  0  0  0  0  0  0  0
   -2.8058    1.5555   -0.7060 C   0  0  0  0  0  0  0  0  0  0  0  0
   -3.5107    0.5435   -0.0764 C   0  0  0  0  0  0  0  0  0  0  0  0
   -2.8363   -0.4724    0.5782 C   0  0  0  0  0  0  0  0  0  0  0  0
   -5.2462    0.5451   -0.1146 Cl  0  0  0  0  0  0  0  0  0  0  0  0
    0.7416    0.5425    0.0168 C   0  0  0  0  0  0  0  0  0  0  0  0
    1.4554   -0.4747   -0.6159 C   0  0  0  0  0  0  0  0  0  0  0  0
    2.8364   -0.4693   -0.5824 C   0  0  0  0  0  0  0  0  0  0  0  0
    3.5106    0.5433    0.0774 C   0  0  0  0  0  0  0  0  0  0  0  0
    2.8058    1.5553    0.7070 C   0  0  0  0  0  0  0  0  0  0  0  0
    1.4264    1.5622    0.6751 C   0  0  0  0  0  0  0  0  0  0  0  0
    5.2462    0.5443    0.1165 Cl  0  0  0  0  0  0  0  0  0  0  0  0
    0.6104   -1.7455   -1.4433 Cl  0  0  0  0  0  0  0  0  0  0  0  0
   -0.8780    2.3500   -1.1695 H   0  0  0  0  0  0  0  0  0  0  0  0
   -3.3369    2.3435   -1.2193 H   0  0  0  0  0  0  0  0  0  0  0  0
   -3.3906   -1.2595    1.0678 H   0  0  0  0  0  0  0  0  0  0  0  0
    3.3907   -1.2566   -1.0716 H   0  0  0  0  0  0  0  0  0  0  0  0
    3.3369    2.3429    1.2208 H   0  0  0  0  0  0  0  0  0  0  0  0
    0.8780    2.3523    1.1666 H   0  0  0  0  0  0  0  0  0  0  0  0
  1  2  1  0  0  0  0
  2  3  2  0  0  0  0
  3  4  1  0  0  0  0
  4  5  2  0  0  0  0
  5  6  1  0  0  0  0
  6  7  2  0  0  0  0
  2  7  1  0  0  0  0
  6  8  1  0  0  0  0
  3  9  1  0  0  0  0
  9 10  2  0  0  0  0
 10 11  1  0  0  0  0
 11 12  2  0  0  0  0
 12 13  1  0  0  0  0
 13 14  2  0  0  0  0
  9 14  1  0  0  0  0
 12 15  1  0  0  0  0
 10 16  1  0  0  0  0
  4 17  1  0  0  0  0
  5 18  1  0  0  0  0
  7 19  1  0  0  0  0
 11 20  1  0  0  0  0
 13 21  1  0  0  0  0
 14 22  1  0  0  0  0
M  END
$$$$
