C9H16
APtclcactv12151716503D 0   0.00000     0.00000
 
 25 24  0  0  0  0  0  0  0  0999 V2000
    2.3608    1.2492   -0.6353 C   0  0  0  0  0  0  0  0  0  0  0  0
    1.7732   -0.0000    0.0242 C   0  0  0  0  0  0  0  0  0  0  0  0
    2.1184    0.0000    1.5148 C   0  0  0  0  0  0  0  0  0  0  0  0
    0.3105   -0.0000   -0.1407 C   0  0  0  0  0  0  0  0  0  0  0  0
   -0.8561   -0.0000   -0.2722 C   0  0  0  0  0  0  0  0  0  0  0  0
   -2.3188   -0.0000   -0.4371 C   0  0  0  0  0  0  0  0  0  0  0  0
   -2.9064   -1.2492    0.2225 C   0  0  0  0  0  0  0  0  0  0  0  0
   -2.9064    1.2492    0.2225 C   0  0  0  0  0  0  0  0  0  0  0  0
    2.3608   -1.2492   -0.6353 C   0  0  0  0  0  0  0  0  0  0  0  0
    3.4440    1.2492   -0.5132 H   0  0  0  0  0  0  0  0  0  0  0  0
    2.1149    1.2492   -1.6972 H   0  0  0  0  0  0  0  0  0  0  0  0
    1.9422    2.1392   -0.1655 H   0  0  0  0  0  0  0  0  0  0  0  0
    1.6998    0.8900    1.9847 H   0  0  0  0  0  0  0  0  0  0  0  0
    1.6998   -0.8900    1.9847 H   0  0  0  0  0  0  0  0  0  0  0  0
    3.2016    0.0000    1.6369 H   0  0  0  0  0  0  0  0  0  0  0  0
   -2.5648   -0.0000   -1.4990 H   0  0  0  0  0  0  0  0  0  0  0  0
   -3.9896   -1.2492    0.1003 H   0  0  0  0  0  0  0  0  0  0  0  0
   -2.4878   -2.1392   -0.2474 H   0  0  0  0  0  0  0  0  0  0  0  0
   -2.6605   -1.2492    1.2844 H   0  0  0  0  0  0  0  0  0  0  0  0
   -2.4878    2.1392   -0.2474 H   0  0  0  0  0  0  0  0  0  0  0  0
   -3.9896    1.2492    0.1003 H   0  0  0  0  0  0  0  0  0  0  0  0
   -2.6605    1.2492    1.2844 H   0  0  0  0  0  0  0  0  0  0  0  0
    3.4440   -1.2492   -0.5132 H   0  0  0  0  0  0  0  0  0  0  0  0
    1.9422   -2.1392   -0.1655 H   0  0  0  0  0  0  0  0  0  0  0  0
    2.1149   -1.2492   -1.6972 H   0  0  0  0  0  0  0  0  0  0  0  0
  1  2  1  0  0  0  0
  2  3  1  0  0  0  0
  2  4  1  0  0  0  0
  4  5  3  0  0  0  0
  5  6  1  0  0  0  0
  6  7  1  0  0  0  0
  6  8  1  0  0  0  0
  2  9  1  0  0  0  0
  1 10  1  0  0  0  0
  1 11  1  0  0  0  0
  1 12  1  0  0  0  0
  3 13  1  0  0  0  0
  3 14  1  0  0  0  0
  3 15  1  0  0  0  0
  6 16  1  0  0  0  0
  7 17  1  0  0  0  0
  7 18  1  0  0  0  0
  7 19  1  0  0  0  0
  8 20  1  0  0  0  0
  8 21  1  0  0  0  0
  8 22  1  0  0  0  0
  9 23  1  0  0  0  0
  9 24  1  0  0  0  0
  9 25  1  0  0  0  0
M  END
$$$$
