C10H18
APtclcactv12211717283D 0   0.00000     0.00000
 
 28 27  0  0  0  0  0  0  0  0999 V2000
    2.5690    0.0120   -1.4424 C   0  0  0  0  0  0  0  0  0  0  0  0
    2.0590   -0.0000    0.0000 C   0  0  0  0  0  0  0  0  0  0  0  0
    2.5690    1.2432    0.7316 C   0  0  0  0  0  0  0  0  0  0  0  0
    0.5870   -0.0000   -0.0000 C   0  0  0  0  0  0  0  0  0  0  0  0
   -0.5870   -0.0000   -0.0000 C   0  0  0  0  0  0  0  0  0  0  0  0
   -2.0590   -0.0000   -0.0000 C   0  0  0  0  0  0  0  0  0  0  0  0
   -2.5690   -0.0120    1.4424 C   0  0  0  0  0  0  0  0  0  0  0  0
   -2.5690    1.2552   -0.7108 C   0  0  0  0  0  0  0  0  0  0  0  0
   -2.5690   -1.2432   -0.7316 C   0  0  0  0  0  0  0  0  0  0  0  0
    2.5690   -1.2552    0.7108 C   0  0  0  0  0  0  0  0  0  0  0  0
    3.6590    0.0120   -1.4424 H   0  0  0  0  0  0  0  0  0  0  0  0
    2.2057   -0.8736   -1.9637 H   0  0  0  0  0  0  0  0  0  0  0  0
    2.2057    0.9063   -1.9488 H   0  0  0  0  0  0  0  0  0  0  0  0
    2.2057    2.1374    0.2253 H   0  0  0  0  0  0  0  0  0  0  0  0
    2.2057    1.2346    1.7593 H   0  0  0  0  0  0  0  0  0  0  0  0
    3.6590    1.2432    0.7316 H   0  0  0  0  0  0  0  0  0  0  0  0
   -2.2057    0.8736    1.9637 H   0  0  0  0  0  0  0  0  0  0  0  0
   -3.6590   -0.0120    1.4424 H   0  0  0  0  0  0  0  0  0  0  0  0
   -2.2057   -0.9063    1.9488 H   0  0  0  0  0  0  0  0  0  0  0  0
   -2.2057    1.2638   -1.7384 H   0  0  0  0  0  0  0  0  0  0  0  0
   -3.6590    1.2552   -0.7108 H   0  0  0  0  0  0  0  0  0  0  0  0
   -2.2057    2.1409   -0.1896 H   0  0  0  0  0  0  0  0  0  0  0  0
   -2.2057   -2.1374   -0.2253 H   0  0  0  0  0  0  0  0  0  0  0  0
   -3.6590   -1.2432   -0.7316 H   0  0  0  0  0  0  0  0  0  0  0  0
   -2.2057   -1.2346   -1.7593 H   0  0  0  0  0  0  0  0  0  0  0  0
    3.6590   -1.2552    0.7108 H   0  0  0  0  0  0  0  0  0  0  0  0
    2.2057   -1.2638    1.7384 H   0  0  0  0  0  0  0  0  0  0  0  0
    2.2057   -2.1409    0.1896 H   0  0  0  0  0  0  0  0  0  0  0  0
  1  2  1  0  0  0  0
  2  3  1  0  0  0  0
  2  4  1  0  0  0  0
  4  5  3  0  0  0  0
  5  6  1  0  0  0  0
  6  7  1  0  0  0  0
  6  8  1  0  0  0  0
  6  9  1  0  0  0  0
  2 10  1  0  0  0  0
  1 11  1  0  0  0  0
  1 12  1  0  0  0  0
  1 13  1  0  0  0  0
  3 14  1  0  0  0  0
  3 15  1  0  0  0  0
  3 16  1  0  0  0  0
  7 17  1  0  0  0  0
  7 18  1  0  0  0  0
  7 19  1  0  0  0  0
  8 20  1  0  0  0  0
  8 21  1  0  0  0  0
  8 22  1  0  0  0  0
  9 23  1  0  0  0  0
  9 24  1  0  0  0  0
  9 25  1  0  0  0  0
 10 26  1  0  0  0  0
 10 27  1  0  0  0  0
 10 28  1  0  0  0  0
M  END
$$$$
