C6H14O
APtclcactv12211717003D 0   0.00000     0.00000
 
 21 20  0  0  0  0  0  0  0  0999 V2000
   -0.0573    1.2492   -0.8855 C   0  0  0  0  0  0  0  0  0  0  0  0
   -0.0340   -0.0000   -0.0025 C   0  0  0  0  0  0  0  0  0  0  0  0
    1.2380    0.0000    0.8477 C   0  0  0  0  0  0  0  0  0  0  0  0
    2.3827   -0.0000   -0.0078 O   0  0  0  0  0  0  0  0  0  0  0  0
   -1.2596    0.0000    0.9135 C   0  0  0  0  0  0  0  0  0  0  0  0
   -2.5317    0.0000    0.0633 C   0  0  0  0  0  0  0  0  0  0  0  0
   -0.0573   -1.2492   -0.8855 C   0  0  0  0  0  0  0  0  0  0  0  0
    0.8158    1.2492   -1.5380 H   0  0  0  0  0  0  0  0  0  0  0  0
   -0.9635    1.2492   -1.4912 H   0  0  0  0  0  0  0  0  0  0  0  0
   -0.0407    2.1392   -0.2564 H   0  0  0  0  0  0  0  0  0  0  0  0
    1.2546    0.8900    1.4768 H   0  0  0  0  0  0  0  0  0  0  0  0
    1.2546   -0.8900    1.4768 H   0  0  0  0  0  0  0  0  0  0  0  0
    3.2266    0.0000    0.4644 H   0  0  0  0  0  0  0  0  0  0  0  0
   -1.2430   -0.8900    1.5426 H   0  0  0  0  0  0  0  0  0  0  0  0
   -1.2430    0.8900    1.5426 H   0  0  0  0  0  0  0  0  0  0  0  0
   -2.5482    0.8900   -0.5658 H   0  0  0  0  0  0  0  0  0  0  0  0
   -2.5482   -0.8900   -0.5658 H   0  0  0  0  0  0  0  0  0  0  0  0
   -3.4048    0.0000    0.7159 H   0  0  0  0  0  0  0  0  0  0  0  0
    0.8158   -1.2493   -1.5380 H   0  0  0  0  0  0  0  0  0  0  0  0
   -0.0407   -2.1392   -0.2564 H   0  0  0  0  0  0  0  0  0  0  0  0
   -0.9635   -1.2493   -1.4912 H   0  0  0  0  0  0  0  0  0  0  0  0
  1  2  1  0  0  0  0
  2  3  1  0  0  0  0
  3  4  1  0  0  0  0
  2  5  1  0  0  0  0
  5  6  1  0  0  0  0
  2  7  1  0  0  0  0
  1  8  1  0  0  0  0
  1  9  1  0  0  0  0
  1 10  1  0  0  0  0
  3 11  1  0  0  0  0
  3 12  1  0  0  0  0
  4 13  1  0  0  0  0
  5 14  1  0  0  0  0
  5 15  1  0  0  0  0
  6 16  1  0  0  0  0
  6 17  1  0  0  0  0
  6 18  1  0  0  0  0
  7 19  1  0  0  0  0
  7 20  1  0  0  0  0
  7 21  1  0  0  0  0
M  END
$$$$
