C9H20
APtclcactv12151716533D 0   0.00000     0.00000
 
 29 28  0  0  0  0  0  0  0  0999 V2000
    2.0583   -0.8560   -1.2492 C   0  0  0  0  0  0  0  0  0  0  0  0
    1.9614    0.0221    0.0000 C   0  0  0  0  0  0  0  0  0  0  0  0
    3.1062    1.0371    0.0000 C   0  0  0  0  0  0  0  0  0  0  0  0
    0.6228    0.7630    0.0000 C   0  0  0  0  0  0  0  0  0  0  0  0
   -0.5220   -0.2520   -0.0000 C   0  0  0  0  0  0  0  0  0  0  0  0
   -1.8606    0.4890    0.0000 C   0  0  0  0  0  0  0  0  0  0  0  0
   -3.0054   -0.5260   -0.0000 C   0  0  0  0  0  0  0  0  0  0  0  0
   -4.3440    0.2150   -0.0000 C   0  0  0  0  0  0  0  0  0  0  0  0
    2.0583   -0.8560    1.2492 C   0  0  0  0  0  0  0  0  0  0  0  0
    3.0119   -1.3839   -1.2492 H   0  0  0  0  0  0  0  0  0  0  0  0
    1.2427   -1.5791   -1.2492 H   0  0  0  0  0  0  0  0  0  0  0  0
    1.9893   -0.2305   -2.1392 H   0  0  0  0  0  0  0  0  0  0  0  0
    3.0372    1.6626   -0.8900 H   0  0  0  0  0  0  0  0  0  0  0  0
    3.0372    1.6626    0.8900 H   0  0  0  0  0  0  0  0  0  0  0  0
    4.0599    0.5092   -0.0000 H   0  0  0  0  0  0  0  0  0  0  0  0
    0.5538    1.3886    0.8900 H   0  0  0  0  0  0  0  0  0  0  0  0
    0.5538    1.3886   -0.8900 H   0  0  0  0  0  0  0  0  0  0  0  0
   -0.4530   -0.8775   -0.8900 H   0  0  0  0  0  0  0  0  0  0  0  0
   -0.4530   -0.8775    0.8900 H   0  0  0  0  0  0  0  0  0  0  0  0
   -1.9296    1.1145    0.8900 H   0  0  0  0  0  0  0  0  0  0  0  0
   -1.9296    1.1145   -0.8900 H   0  0  0  0  0  0  0  0  0  0  0  0
   -2.9364   -1.1515   -0.8900 H   0  0  0  0  0  0  0  0  0  0  0  0
   -2.9364   -1.1515    0.8900 H   0  0  0  0  0  0  0  0  0  0  0  0
   -4.4130    0.8405    0.8900 H   0  0  0  0  0  0  0  0  0  0  0  0
   -4.4130    0.8405   -0.8900 H   0  0  0  0  0  0  0  0  0  0  0  0
   -5.1596   -0.5082   -0.0000 H   0  0  0  0  0  0  0  0  0  0  0  0
    3.0119   -1.3839    1.2492 H   0  0  0  0  0  0  0  0  0  0  0  0
    1.9893   -0.2305    2.1392 H   0  0  0  0  0  0  0  0  0  0  0  0
    1.2427   -1.5791    1.2492 H   0  0  0  0  0  0  0  0  0  0  0  0
  1  2  1  0  0  0  0
  2  3  1  0  0  0  0
  2  4  1  0  0  0  0
  4  5  1  0  0  0  0
  5  6  1  0  0  0  0
  6  7  1  0  0  0  0
  7  8  1  0  0  0  0
  2  9  1  0  0  0  0
  1 10  1  0  0  0  0
  1 11  1  0  0  0  0
  1 12  1  0  0  0  0
  3 13  1  0  0  0  0
  3 14  1  0  0  0  0
  3 15  1  0  0  0  0
  4 16  1  0  0  0  0
  4 17  1  0  0  0  0
  5 18  1  0  0  0  0
  5 19  1  0  0  0  0
  6 20  1  0  0  0  0
  6 21  1  0  0  0  0
  7 22  1  0  0  0  0
  7 23  1  0  0  0  0
  8 24  1  0  0  0  0
  8 25  1  0  0  0  0
  8 26  1  0  0  0  0
  9 27  1  0  0  0  0
  9 28  1  0  0  0  0
  9 29  1  0  0  0  0
M  END
$$$$
