C16H15Cl3S2
APtclcactv12211717113D 0   0.00000     0.00000
 
 36 37  0  0  0  0  0  0  0  0999 V2000
   -4.6794   -3.1185    1.5018 C   0  0  0  0  0  0  0  0  0  0  0  0
   -5.0659   -2.1636    0.0087 S   0  0  0  0  0  0  0  0  0  0  0  0
   -3.5941   -1.2323   -0.2582 C   0  0  0  0  0  0  0  0  0  0  0  0
   -3.5072   -0.3612   -1.3376 C   0  0  0  0  0  0  0  0  0  0  0  0
   -2.3524    0.3674   -1.5433 C   0  0  0  0  0  0  0  0  0  0  0  0
   -1.2830    0.2308   -0.6771 C   0  0  0  0  0  0  0  0  0  0  0  0
   -1.3659   -0.6352    0.3981 C   0  0  0  0  0  0  0  0  0  0  0  0
   -2.5196   -1.3627    0.6134 C   0  0  0  0  0  0  0  0  0  0  0  0
   -0.0241    1.0270   -0.9056 C   0  0  0  0  0  0  0  0  0  0  0  0
    0.0464    2.1715    0.1073 C   0  0  0  0  0  0  0  0  0  0  0  0
   -0.1408    1.5111    1.7745 Cl  0  0  0  0  0  0  0  0  0  0  0  0
    1.6403    3.0023   -0.0346 Cl  0  0  0  0  0  0  0  0  0  0  0  0
   -1.2772    3.3500   -0.2245 Cl  0  0  0  0  0  0  0  0  0  0  0  0
    1.1752    0.1305   -0.7349 C   0  0  0  0  0  0  0  0  0  0  0  0
    1.4391   -0.8542   -1.6695 C   0  0  0  0  0  0  0  0  0  0  0  0
    2.5370   -1.6774   -1.5163 C   0  0  0  0  0  0  0  0  0  0  0  0
    3.3774   -1.5155   -0.4213 C   0  0  0  0  0  0  0  0  0  0  0  0
    3.1091   -0.5250    0.5158 C   0  0  0  0  0  0  0  0  0  0  0  0
    2.0125    0.2982    0.3531 C   0  0  0  0  0  0  0  0  0  0  0  0
    4.7793   -2.5641   -0.2214 S   0  0  0  0  0  0  0  0  0  0  0  0
    5.5246   -1.9598    1.3181 C   0  0  0  0  0  0  0  0  0  0  0  0
   -4.4608   -2.4360    2.3231 H   0  0  0  0  0  0  0  0  0  0  0  0
   -5.5334   -3.7424    1.7654 H   0  0  0  0  0  0  0  0  0  0  0  0
   -3.8116   -3.7509    1.3142 H   0  0  0  0  0  0  0  0  0  0  0  0
   -4.3417   -0.2545   -2.0148 H   0  0  0  0  0  0  0  0  0  0  0  0
   -2.2841    1.0446   -2.3819 H   0  0  0  0  0  0  0  0  0  0  0  0
   -0.5288   -0.7394    1.0725 H   0  0  0  0  0  0  0  0  0  0  0  0
   -2.5836   -2.0387    1.4533 H   0  0  0  0  0  0  0  0  0  0  0  0
   -0.0311    1.4358   -1.9160 H   0  0  0  0  0  0  0  0  0  0  0  0
    0.7853   -0.9796   -2.5199 H   0  0  0  0  0  0  0  0  0  0  0  0
    2.7422   -2.4464   -2.2463 H   0  0  0  0  0  0  0  0  0  0  0  0
    3.7599   -0.3965    1.3681 H   0  0  0  0  0  0  0  0  0  0  0  0
    1.8036    1.0685    1.0807 H   0  0  0  0  0  0  0  0  0  0  0  0
    4.8072   -2.0595    2.1327 H   0  0  0  0  0  0  0  0  0  0  0  0
    6.4155   -2.5454    1.5448 H   0  0  0  0  0  0  0  0  0  0  0  0
    5.7988   -0.9112    1.2019 H   0  0  0  0  0  0  0  0  0  0  0  0
  1  2  1  0  0  0  0
  2  3  1  0  0  0  0
  3  4  2  0  0  0  0
  4  5  1  0  0  0  0
  5  6  2  0  0  0  0
  6  7  1  0  0  0  0
  7  8  2  0  0  0  0
  3  8  1  0  0  0  0
  6  9  1  0  0  0  0
  9 10  1  0  0  0  0
 10 11  1  0  0  0  0
 10 12  1  0  0  0  0
 10 13  1  0  0  0  0
  9 14  1  0  0  0  0
 14 15  2  0  0  0  0
 15 16  1  0  0  0  0
 16 17  2  0  0  0  0
 17 18  1  0  0  0  0
 18 19  2  0  0  0  0
 14 19  1  0  0  0  0
 17 20  1  0  0  0  0
 20 21  1  0  0  0  0
  1 22  1  0  0  0  0
  1 23  1  0  0  0  0
  1 24  1  0  0  0  0
  4 25  1  0  0  0  0
  5 26  1  0  0  0  0
  7 27  1  0  0  0  0
  8 28  1  0  0  0  0
  9 29  1  0  0  0  0
 15 30  1  0  0  0  0
 16 31  1  0  0  0  0
 18 32  1  0  0  0  0
 19 33  1  0  0  0  0
 21 34  1  0  0  0  0
 21 35  1  0  0  0  0
 21 36  1  0  0  0  0
M  END
$$$$
