C6H11NO2S
APtclcactv12211716563D 0   0.00000     0.00000
 
 21 21  0  0  0  0  0  0  0  0999 V2000
    2.4641   -0.9079   -1.1590 C   0  0  0  0  0  0  0  0  0  0  0  0
    1.5335   -0.4839   -0.0209 C   0  0  0  0  0  0  0  0  0  0  0  0
    1.4532    1.3466    0.0889 S   0  0  0  0  0  0  0  0  0  0  0  0
   -0.3688    1.4092    0.3547 C   0  0  0  0  0  0  0  0  0  0  0  0
   -0.8036    0.1854   -0.4983 C   0  0  0  0  0  0  0  0  0  0  0  0
    0.1504   -0.9099   -0.3040 N   0  0  0  0  0  0  0  0  0  0  0  0
   -2.1772   -0.2629   -0.0703 C   0  0  0  0  0  0  0  0  0  0  0  0
   -2.3378   -1.3731    0.3786 O   0  0  0  0  0  0  0  0  0  0  0  0
   -3.2224    0.5712   -0.1878 O   0  0  0  0  0  0  0  0  0  0  0  0
    2.0136   -1.0756    1.3058 C   0  0  0  0  0  0  0  0  0  0  0  0
    3.4710   -0.5405   -0.9611 H   0  0  0  0  0  0  0  0  0  0  0  0
    2.4813   -1.9956   -1.2281 H   0  0  0  0  0  0  0  0  0  0  0  0
    2.1029   -0.4898   -2.0986 H   0  0  0  0  0  0  0  0  0  0  0  0
   -0.6212    1.2696    1.4059 H   0  0  0  0  0  0  0  0  0  0  0  0
   -0.7946    2.3345   -0.0333 H   0  0  0  0  0  0  0  0  0  0  0  0
   -0.8254    0.4658   -1.5514 H   0  0  0  0  0  0  0  0  0  0  0  0
    0.1224   -1.5556   -1.0788 H   0  0  0  0  0  0  0  0  0  0  0  0
   -4.0837    0.2389    0.0999 H   0  0  0  0  0  0  0  0  0  0  0  0
    3.0263   -0.7295    1.5127 H   0  0  0  0  0  0  0  0  0  0  0  0
    1.3491   -0.7553    2.1082 H   0  0  0  0  0  0  0  0  0  0  0  0
    2.0076   -2.1637    1.2416 H   0  0  0  0  0  0  0  0  0  0  0  0
  1  2  1  0  0  0  0
  2  3  1  0  0  0  0
  3  4  1  0  0  0  0
  4  5  1  0  0  0  0
  5  6  1  0  0  0  0
  2  6  1  0  0  0  0
  5  7  1  0  0  0  0
  7  8  2  0  0  0  0
  7  9  1  0  0  0  0
  2 10  1  0  0  0  0
  1 11  1  0  0  0  0
  1 12  1  0  0  0  0
  1 13  1  0  0  0  0
  4 14  1  0  0  0  0
  4 15  1  0  0  0  0
  5 16  1  0  0  0  0
  6 17  1  0  0  0  0
  9 18  1  0  0  0  0
 10 19  1  0  0  0  0
 10 20  1  0  0  0  0
 10 21  1  0  0  0  0
M  END
$$$$
