C12H6Cl4
APtclcactv12111704533D 0   0.00000     0.00000
 
 22 23  0  0  0  0  0  0  0  0999 V2000
   -0.5926   -2.7948   -0.3158 Cl  0  0  0  0  0  0  0  0  0  0  0  0
   -1.2862   -1.2130   -0.1409 C   0  0  0  0  0  0  0  0  0  0  0  0
   -0.4764   -0.1285    0.1948 C   0  0  0  0  0  0  0  0  0  0  0  0
   -1.0401    1.1394    0.3333 C   0  0  0  0  0  0  0  0  0  0  0  0
   -2.3960    1.3147    0.1374 C   0  0  0  0  0  0  0  0  0  0  0  0
   -3.1952    0.2345   -0.1953 C   0  0  0  0  0  0  0  0  0  0  0  0
   -2.6401   -1.0253   -0.3395 C   0  0  0  0  0  0  0  0  0  0  0  0
   -4.8988    0.4620   -0.4394 Cl  0  0  0  0  0  0  0  0  0  0  0  0
   -0.0394    2.4950    0.7515 Cl  0  0  0  0  0  0  0  0  0  0  0  0
    0.9793   -0.3230    0.4044 C   0  0  0  0  0  0  0  0  0  0  0  0
    1.8958    0.2767   -0.4565 C   0  0  0  0  0  0  0  0  0  0  0  0
    3.2503    0.0924   -0.2562 C   0  0  0  0  0  0  0  0  0  0  0  0
    3.6964   -0.6867    0.7973 C   0  0  0  0  0  0  0  0  0  0  0  0
    2.7900   -1.2840    1.6546 C   0  0  0  0  0  0  0  0  0  0  0  0
    1.4350   -1.1017    1.4668 C   0  0  0  0  0  0  0  0  0  0  0  0
    4.3943    0.8386   -1.3277 Cl  0  0  0  0  0  0  0  0  0  0  0  0
   -2.8336    2.2963    0.2443 H   0  0  0  0  0  0  0  0  0  0  0  0
   -3.2681   -1.8645   -0.5996 H   0  0  0  0  0  0  0  0  0  0  0  0
    1.5482    0.8841   -1.2791 H   0  0  0  0  0  0  0  0  0  0  0  0
    4.7560   -0.8290    0.9503 H   0  0  0  0  0  0  0  0  0  0  0  0
    3.1435   -1.8909    2.4750 H   0  0  0  0  0  0  0  0  0  0  0  0
    0.7285   -1.5687    2.1371 H   0  0  0  0  0  0  0  0  0  0  0  0
  1  2  1  0  0  0  0
  2  3  2  0  0  0  0
  3  4  1  0  0  0  0
  4  5  2  0  0  0  0
  5  6  1  0  0  0  0
  6  7  2  0  0  0  0
  2  7  1  0  0  0  0
  6  8  1  0  0  0  0
  4  9  1  0  0  0  0
  3 10  1  0  0  0  0
 10 11  2  0  0  0  0
 11 12  1  0  0  0  0
 12 13  2  0  0  0  0
 13 14  1  0  0  0  0
 14 15  2  0  0  0  0
 10 15  1  0  0  0  0
 12 16  1  0  0  0  0
  5 17  1  0  0  0  0
  7 18  1  0  0  0  0
 11 19  1  0  0  0  0
 13 20  1  0  0  0  0
 14 21  1  0  0  0  0
 15 22  1  0  0  0  0
M  END
$$$$
