C12H7Cl3
APtclcactv12111704543D 0   0.00000     0.00000
 
 22 23  0  0  0  0  0  0  0  0999 V2000
   -0.4334   -2.9182   -0.5404 Cl  0  0  0  0  0  0  0  0  0  0  0  0
   -1.3397   -1.4564   -0.3047 C   0  0  0  0  0  0  0  0  0  0  0  0
   -0.6919   -0.2911    0.1034 C   0  0  0  0  0  0  0  0  0  0  0  0
   -1.4254    0.8785    0.2906 C   0  0  0  0  0  0  0  0  0  0  0  0
   -2.7891    0.8780    0.0714 C   0  0  0  0  0  0  0  0  0  0  0  0
   -3.4272   -0.2821   -0.3338 C   0  0  0  0  0  0  0  0  0  0  0  0
   -2.7033   -1.4441   -0.5267 C   0  0  0  0  0  0  0  0  0  0  0  0
   -3.7047    2.3343    0.3048 Cl  0  0  0  0  0  0  0  0  0  0  0  0
    0.7733   -0.2968    0.3378 C   0  0  0  0  0  0  0  0  0  0  0  0
    1.5778    0.6808   -0.2433 C   0  0  0  0  0  0  0  0  0  0  0  0
    2.9415    0.6706   -0.0215 C   0  0  0  0  0  0  0  0  0  0  0  0
    3.5076   -0.3087    0.7763 C   0  0  0  0  0  0  0  0  0  0  0  0
    2.7124   -1.2812    1.3552 C   0  0  0  0  0  0  0  0  0  0  0  0
    1.3485   -1.2767    1.1448 C   0  0  0  0  0  0  0  0  0  0  0  0
    3.9464    1.8873   -0.7450 Cl  0  0  0  0  0  0  0  0  0  0  0  0
   -0.9287    1.7839    0.6070 H   0  0  0  0  0  0  0  0  0  0  0  0
   -4.4938   -0.2782   -0.5037 H   0  0  0  0  0  0  0  0  0  0  0  0
   -3.2061   -2.3462   -0.8427 H   0  0  0  0  0  0  0  0  0  0  0  0
    1.1366    1.4448   -0.8661 H   0  0  0  0  0  0  0  0  0  0  0  0
    4.5740   -0.3136    0.9470 H   0  0  0  0  0  0  0  0  0  0  0  0
    3.1593   -2.0430    1.9768 H   0  0  0  0  0  0  0  0  0  0  0  0
    0.7290   -2.0367    1.5974 H   0  0  0  0  0  0  0  0  0  0  0  0
  1  2  1  0  0  0  0
  2  3  2  0  0  0  0
  3  4  1  0  0  0  0
  4  5  2  0  0  0  0
  5  6  1  0  0  0  0
  6  7  2  0  0  0  0
  2  7  1  0  0  0  0
  5  8  1  0  0  0  0
  3  9  1  0  0  0  0
  9 10  2  0  0  0  0
 10 11  1  0  0  0  0
 11 12  2  0  0  0  0
 12 13  1  0  0  0  0
 13 14  2  0  0  0  0
  9 14  1  0  0  0  0
 11 15  1  0  0  0  0
  4 16  1  0  0  0  0
  6 17  1  0  0  0  0
  7 18  1  0  0  0  0
 10 19  1  0  0  0  0
 12 20  1  0  0  0  0
 13 21  1  0  0  0  0
 14 22  1  0  0  0  0
M  END
$$$$
