C7H3Cl3O2
APtclcactv12211717013D 0   0.00000     0.00000
 
 15 15  0  0  0  0  0  0  0  0999 V2000
   -1.4765   -1.8823   -0.0312 Cl  0  0  0  0  0  0  0  0  0  0  0  0
   -0.7634   -0.2996   -0.0106 C   0  0  0  0  0  0  0  0  0  0  0  0
    0.6269   -0.1572   -0.0195 C   0  0  0  0  0  0  0  0  0  0  0  0
    1.4944   -1.3506   -0.0465 C   0  0  0  0  0  0  0  0  0  0  0  0
    1.8430   -1.8244   -1.1095 O   0  0  0  0  0  0  0  0  0  0  0  0
    1.8999   -1.9149    1.1079 O   0  0  0  0  0  0  0  0  0  0  0  0
    1.1917    1.1218   -0.0033 C   0  0  0  0  0  0  0  0  0  0  0  0
    0.3739    2.2338    0.0214 C   0  0  0  0  0  0  0  0  0  0  0  0
   -1.0016    2.0857    0.0305 C   0  0  0  0  0  0  0  0  0  0  0  0
   -1.5690    0.8233    0.0088 C   0  0  0  0  0  0  0  0  0  0  0  0
   -3.2963    0.6499    0.0201 Cl  0  0  0  0  0  0  0  0  0  0  0  0
    2.9173    1.3110   -0.0136 Cl  0  0  0  0  0  0  0  0  0  0  0  0
    2.4672   -2.6950    1.0397 H   0  0  0  0  0  0  0  0  0  0  0  0
    0.8091    3.2221    0.0339 H   0  0  0  0  0  0  0  0  0  0  0  0
   -1.6359    2.9595    0.0502 H   0  0  0  0  0  0  0  0  0  0  0  0
  1  2  1  0  0  0  0
  2  3  2  0  0  0  0
  3  4  1  0  0  0  0
  4  5  2  0  0  0  0
  4  6  1  0  0  0  0
  3  7  1  0  0  0  0
  7  8  2  0  0  0  0
  8  9  1  0  0  0  0
  9 10  2  0  0  0  0
  2 10  1  0  0  0  0
 10 11  1  0  0  0  0
  7 12  1  0  0  0  0
  6 13  1  0  0  0  0
  8 14  1  0  0  0  0
  9 15  1  0  0  0  0
M  END
$$$$
