C10H11Cl3O2
APtclcactv12211717223D 0   0.00000     0.00000
 
 26 26  0  0  0  0  0  0  0  0999 V2000
   -2.5225   -1.3176   -0.9266 Cl  0  0  0  0  0  0  0  0  0  0  0  0
   -2.5563    0.0521    0.2455 C   0  0  0  0  0  0  0  0  0  0  0  0
   -1.2961    0.9023    0.0729 C   0  0  0  0  0  0  0  0  0  0  0  0
   -1.2657    1.9183    1.0773 O   0  0  0  0  0  0  0  0  0  0  0  0
   -0.1401    0.0719    0.2001 O   0  0  0  0  0  0  0  0  0  0  0  0
    1.0923    0.7480   -0.0567 C   0  0  0  0  0  0  0  0  0  0  0  0
    2.2381   -0.2174    0.1052 C   0  0  0  0  0  0  0  0  0  0  0  0
    1.9905   -1.5317    0.4531 C   0  0  0  0  0  0  0  0  0  0  0  0
    3.0417   -2.4175    0.6017 C   0  0  0  0  0  0  0  0  0  0  0  0
    4.3407   -1.9891    0.4030 C   0  0  0  0  0  0  0  0  0  0  0  0
    4.5896   -0.6745    0.0554 C   0  0  0  0  0  0  0  0  0  0  0  0
    3.5379    0.2106   -0.0999 C   0  0  0  0  0  0  0  0  0  0  0  0
    3.8497    1.8616   -0.5368 Cl  0  0  0  0  0  0  0  0  0  0  0  0
   -3.7930    0.9148   -0.0138 C   0  0  0  0  0  0  0  0  0  0  0  0
   -5.2781   -0.0872    0.1896 Cl  0  0  0  0  0  0  0  0  0  0  0  0
   -2.5936   -0.3402    1.2618 H   0  0  0  0  0  0  0  0  0  0  0  0
   -1.3032    1.3665   -0.9133 H   0  0  0  0  0  0  0  0  0  0  0  0
   -1.2578    1.5769    1.9820 H   0  0  0  0  0  0  0  0  0  0  0  0
    1.0873    1.1385   -1.0743 H   0  0  0  0  0  0  0  0  0  0  0  0
    1.2087    1.5715    0.6479 H   0  0  0  0  0  0  0  0  0  0  0  0
    0.9758   -1.8669    0.6092 H   0  0  0  0  0  0  0  0  0  0  0  0
    2.8477   -3.4446    0.8736 H   0  0  0  0  0  0  0  0  0  0  0  0
    5.1613   -2.6814    0.5196 H   0  0  0  0  0  0  0  0  0  0  0  0
    5.6047   -0.3396   -0.0991 H   0  0  0  0  0  0  0  0  0  0  0  0
   -3.8135    1.7428    0.6948 H   0  0  0  0  0  0  0  0  0  0  0  0
   -3.7558    1.3070   -1.0301 H   0  0  0  0  0  0  0  0  0  0  0  0
  1  2  1  0  0  0  0
  2  3  1  0  0  0  0
  3  4  1  0  0  0  0
  3  5  1  0  0  0  0
  5  6  1  0  0  0  0
  6  7  1  0  0  0  0
  7  8  2  0  0  0  0
  8  9  1  0  0  0  0
  9 10  2  0  0  0  0
 10 11  1  0  0  0  0
 11 12  2  0  0  0  0
  7 12  1  0  0  0  0
 12 13  1  0  0  0  0
  2 14  1  0  0  0  0
 14 15  1  0  0  0  0
  2 16  1  0  0  0  0
  3 17  1  0  0  0  0
  4 18  1  0  0  0  0
  6 19  1  0  0  0  0
  6 20  1  0  0  0  0
  8 21  1  0  0  0  0
  9 22  1  0  0  0  0
 10 23  1  0  0  0  0
 11 24  1  0  0  0  0
 14 25  1  0  0  0  0
 14 26  1  0  0  0  0
M  END
$$$$
