C6HCl4NO2
APtclcactv12211716473D 0   0.00000     0.00000
 
 14 14  0  0  0  0  0  0  0  0999 V2000
   -2.7013    0.9900   -0.0024 Cl  0  0  0  0  0  0  0  0  0  0  0  0
   -1.1979    0.1220   -0.0019 C   0  0  0  0  0  0  0  0  0  0  0  0
   -0.0000    0.8136   -0.0002 C   0  0  0  0  0  0  0  0  0  0  0  0
    1.1979    0.1220    0.0002 C   0  0  0  0  0  0  0  0  0  0  0  0
    1.1979   -1.2626   -0.0006 C   0  0  0  0  0  0  0  0  0  0  0  0
    0.0000   -1.9542   -0.0013 C   0  0  0  0  0  0  0  0  0  0  0  0
   -1.1978   -1.2627    0.0027 C   0  0  0  0  0  0  0  0  0  0  0  0
   -2.7013   -2.1306    0.0018 Cl  0  0  0  0  0  0  0  0  0  0  0  0
    2.7013   -2.1306   -0.0012 Cl  0  0  0  0  0  0  0  0  0  0  0  0
    2.7013    0.9900    0.0011 Cl  0  0  0  0  0  0  0  0  0  0  0  0
   -0.0000    2.2938    0.0006 N   0  3  0  0  0  0  0  0  0  0  0  0
   -0.0011    2.9022    1.0558 O   0  0  0  0  0  0  0  0  0  0  0  0
    0.0011    2.9034   -1.0539 O   0  5  0  0  0  0  0  0  0  0  0  0
    0.0000   -3.0342   -0.0023 H   0  0  0  0  0  0  0  0  0  0  0  0
  1  2  1  0  0  0  0
  2  3  2  0  0  0  0
  3  4  1  0  0  0  0
  4  5  2  0  0  0  0
  5  6  1  0  0  0  0
  6  7  2  0  0  0  0
  2  7  1  0  0  0  0
  7  8  1  0  0  0  0
  5  9  1  0  0  0  0
  4 10  1  0  0  0  0
  3 11  1  0  0  0  0
 11 12  2  0  0  0  0
 11 13  1  0  0  0  0
  6 14  1  0  0  0  0
M  CHG  2  11   1  13  -1
M  END
$$$$
