C7H6O5
APtclcactv12151716163D 0   0.00000     0.00000
 
 18 18  0  0  0  0  0  0  0  0999 V2000
    0.4905    2.0376    0.0054 O   0  0  0  0  0  0  0  0  0  0  0  0
   -0.0227    0.7810   -0.0035 C   0  0  0  0  0  0  0  0  0  0  0  0
    0.8339   -0.3298   -0.0002 C   0  0  0  0  0  0  0  0  0  0  0  0
    2.2928   -0.1375    0.0134 C   0  0  0  0  0  0  0  0  0  0  0  0
    2.7577    0.9855    0.0218 O   0  0  0  0  0  0  0  0  0  0  0  0
    3.1136   -1.2066    0.0165 O   0  0  0  0  0  0  0  0  0  0  0  0
    0.2958   -1.6218   -0.0095 C   0  0  0  0  0  0  0  0  0  0  0  0
   -1.0683   -1.7993   -0.0218 C   0  0  0  0  0  0  0  0  0  0  0  0
   -1.9190   -0.6988   -0.0255 C   0  0  0  0  0  0  0  0  0  0  0  0
   -1.3974    0.5896   -0.0101 C   0  0  0  0  0  0  0  0  0  0  0  0
   -2.2343    1.6630   -0.0139 O   0  0  0  0  0  0  0  0  0  0  0  0
   -3.2643   -0.8839   -0.0386 O   0  0  0  0  0  0  0  0  0  0  0  0
    0.6468    2.4050   -0.8754 H   0  0  0  0  0  0  0  0  0  0  0  0
    4.0643   -1.0302    0.0256 H   0  0  0  0  0  0  0  0  0  0  0  0
    0.9518   -2.4797   -0.0074 H   0  0  0  0  0  0  0  0  0  0  0  0
   -1.4804   -2.7975   -0.0290 H   0  0  0  0  0  0  0  0  0  0  0  0
   -2.4876    1.9673    0.8683 H   0  0  0  0  0  0  0  0  0  0  0  0
   -3.6621   -0.9408    0.8410 H   0  0  0  0  0  0  0  0  0  0  0  0
  1  2  1  0  0  0  0
  2  3  2  0  0  0  0
  3  4  1  0  0  0  0
  4  5  2  0  0  0  0
  4  6  1  0  0  0  0
  3  7  1  0  0  0  0
  7  8  2  0  0  0  0
  8  9  1  0  0  0  0
  9 10  2  0  0  0  0
  2 10  1  0  0  0  0
 10 11  1  0  0  0  0
  9 12  1  0  0  0  0
  1 13  1  0  0  0  0
  6 14  1  0  0  0  0
  7 15  1  0  0  0  0
  8 16  1  0  0  0  0
 11 17  1  0  0  0  0
 12 18  1  0  0  0  0
M  END
$$$$
