C6H3Cl3O
APtclcactv12211716483D 0   0.00000     0.00000
 
 13 13  0  0  0  0  0  0  0  0999 V2000
    2.1960   -1.3416    0.0104 Cl  0  0  0  0  0  0  0  0  0  0  0  0
    1.0437   -0.0432    0.0097 C   0  0  0  0  0  0  0  0  0  0  0  0
    1.4812    1.2739    0.0146 C   0  0  0  0  0  0  0  0  0  0  0  0
    0.5584    2.3094    0.0135 C   0  0  0  0  0  0  0  0  0  0  0  0
   -0.7944    2.0290    0.0075 C   0  0  0  0  0  0  0  0  0  0  0  0
   -1.2303    0.7159    0.0030 C   0  0  0  0  0  0  0  0  0  0  0  0
   -0.3118   -0.3202   -0.0017 C   0  0  0  0  0  0  0  0  0  0  0  0
   -0.8611   -1.9670   -0.0079 Cl  0  0  0  0  0  0  0  0  0  0  0  0
   -2.9308    0.3669   -0.0040 Cl  0  0  0  0  0  0  0  0  0  0  0  0
    2.8126    1.5487    0.0210 O   0  0  0  0  0  0  0  0  0  0  0  0
    0.8973    3.3349    0.0177 H   0  0  0  0  0  0  0  0  0  0  0  0
   -1.5125    2.8357    0.0067 H   0  0  0  0  0  0  0  0  0  0  0  0
    3.2015    1.6303   -0.8606 H   0  0  0  0  0  0  0  0  0  0  0  0
  1  2  1  0  0  0  0
  2  3  2  0  0  0  0
  3  4  1  0  0  0  0
  4  5  2  0  0  0  0
  5  6  1  0  0  0  0
  6  7  2  0  0  0  0
  2  7  1  0  0  0  0
  7  8  1  0  0  0  0
  6  9  1  0  0  0  0
  3 10  1  0  0  0  0
  4 11  1  0  0  0  0
  5 12  1  0  0  0  0
 10 13  1  0  0  0  0
M  END
$$$$
