C8H5Cl3O3
APtclcactv12151716253D 0   0.00000     0.00000
 
 19 19  0  0  0  0  0  0  0  0999 V2000
    0.0163   -2.3402    0.0024 Cl  0  0  0  0  0  0  0  0  0  0  0  0
   -0.3823   -0.6505    0.0016 C   0  0  0  0  0  0  0  0  0  0  0  0
    0.6275    0.3014    0.0008 C   0  0  0  0  0  0  0  0  0  0  0  0
    1.9300   -0.0881    0.0005 O   0  0  0  0  0  0  0  0  0  0  0  0
    2.9164    0.9459   -0.0004 C   0  0  0  0  0  0  0  0  0  0  0  0
    4.2912    0.3287   -0.0005 C   0  0  0  0  0  0  0  0  0  0  0  0
    4.4137   -0.8734    0.0001 O   0  0  0  0  0  0  0  0  0  0  0  0
    5.3796    1.1143   -0.0013 O   0  0  0  0  0  0  0  0  0  0  0  0
    0.3063    1.6508   -0.0003 C   0  0  0  0  0  0  0  0  0  0  0  0
   -1.0177    2.0456   -0.0005 C   0  0  0  0  0  0  0  0  0  0  0  0
   -2.0242    1.0963    0.0008 C   0  0  0  0  0  0  0  0  0  0  0  0
   -1.7071   -0.2514   -0.0039 C   0  0  0  0  0  0  0  0  0  0  0  0
   -2.9718   -1.4407   -0.0028 Cl  0  0  0  0  0  0  0  0  0  0  0  0
   -3.6868    1.5957    0.0017 Cl  0  0  0  0  0  0  0  0  0  0  0  0
    2.7951    1.5630   -0.8906 H   0  0  0  0  0  0  0  0  0  0  0  0
    2.7957    1.5639    0.8893 H   0  0  0  0  0  0  0  0  0  0  0  0
    6.2398    0.6726   -0.0014 H   0  0  0  0  0  0  0  0  0  0  0  0
    1.0911    2.3928   -0.0006 H   0  0  0  0  0  0  0  0  0  0  0  0
   -1.2672    3.0963   -0.0013 H   0  0  0  0  0  0  0  0  0  0  0  0
  1  2  1  0  0  0  0
  2  3  2  0  0  0  0
  3  4  1  0  0  0  0
  4  5  1  0  0  0  0
  5  6  1  0  0  0  0
  6  7  2  0  0  0  0
  6  8  1  0  0  0  0
  3  9  1  0  0  0  0
  9 10  2  0  0  0  0
 10 11  1  0  0  0  0
 11 12  2  0  0  0  0
  2 12  1  0  0  0  0
 12 13  1  0  0  0  0
 11 14  1  0  0  0  0
  5 15  1  0  0  0  0
  5 16  1  0  0  0  0
  8 17  1  0  0  0  0
  9 18  1  0  0  0  0
 10 19  1  0  0  0  0
M  END
$$$$
