C12H5Cl5
APtclcactv12111704523D 0   0.00000     0.00000
 
 22 23  0  0  0  0  0  0  0  0999 V2000
    0.8799   -2.7112   -0.0847 Cl  0  0  0  0  0  0  0  0  0  0  0  0
    0.0166   -1.2059   -0.0375 C   0  0  0  0  0  0  0  0  0  0  0  0
    0.7164   -0.0004   -0.0000 C   0  0  0  0  0  0  0  0  0  0  0  0
    0.0172    1.2054    0.0379 C   0  0  0  0  0  0  0  0  0  0  0  0
   -1.3651    1.2003    0.0382 C   0  0  0  0  0  0  0  0  0  0  0  0
   -2.0556    0.0002    0.0014 C   0  0  0  0  0  0  0  0  0  0  0  0
   -1.3657   -1.2000   -0.0426 C   0  0  0  0  0  0  0  0  0  0  0  0
   -2.2384   -2.7000   -0.0891 Cl  0  0  0  0  0  0  0  0  0  0  0  0
   -3.7916    0.0006    0.0032 Cl  0  0  0  0  0  0  0  0  0  0  0  0
   -2.2371    2.7007    0.0854 Cl  0  0  0  0  0  0  0  0  0  0  0  0
    0.8812    2.7103    0.0852 Cl  0  0  0  0  0  0  0  0  0  0  0  0
    2.2000   -0.0008   -0.0001 C   0  0  0  0  0  0  0  0  0  0  0  0
    2.8994    0.5421   -1.0762 C   0  0  0  0  0  0  0  0  0  0  0  0
    4.2795    0.5395   -1.0707 C   0  0  0  0  0  0  0  0  0  0  0  0
    4.9685   -0.0010    0.0001 C   0  0  0  0  0  0  0  0  0  0  0  0
    4.2793   -0.5417    1.0707 C   0  0  0  0  0  0  0  0  0  0  0  0
    2.8992   -0.5388    1.0786 C   0  0  0  0  0  0  0  0  0  0  0  0
    2.3625    0.9638   -1.9130 H   0  0  0  0  0  0  0  0  0  0  0  0
    4.8226    0.9600   -1.9041 H   0  0  0  0  0  0  0  0  0  0  0  0
    6.0485   -0.0013    0.0000 H   0  0  0  0  0  0  0  0  0  0  0  0
    4.8223   -0.9627    1.9039 H   0  0  0  0  0  0  0  0  0  0  0  0
    2.3621   -0.9609    1.9151 H   0  0  0  0  0  0  0  0  0  0  0  0
  1  2  1  0  0  0  0
  2  3  2  0  0  0  0
  3  4  1  0  0  0  0
  4  5  2  0  0  0  0
  5  6  1  0  0  0  0
  6  7  2  0  0  0  0
  2  7  1  0  0  0  0
  7  8  1  0  0  0  0
  6  9  1  0  0  0  0
  5 10  1  0  0  0  0
  4 11  1  0  0  0  0
  3 12  1  0  0  0  0
 12 13  2  0  0  0  0
 13 14  1  0  0  0  0
 14 15  2  0  0  0  0
 15 16  1  0  0  0  0
 16 17  2  0  0  0  0
 12 17  1  0  0  0  0
 13 18  1  0  0  0  0
 14 19  1  0  0  0  0
 15 20  1  0  0  0  0
 16 21  1  0  0  0  0
 17 22  1  0  0  0  0
M  END
$$$$
