C6H2Cl4O
APtclcactv12211716473D 0   0.00000     0.00000
 
 13 13  0  0  0  0  0  0  0  0999 V2000
   -3.0907    0.1009   -0.0116 Cl  0  0  0  0  0  0  0  0  0  0  0  0
   -1.3815    0.4050   -0.0095 C   0  0  0  0  0  0  0  0  0  0  0  0
   -0.9083    1.7097   -0.0136 C   0  0  0  0  0  0  0  0  0  0  0  0
    0.4575    1.9504   -0.0115 C   0  0  0  0  0  0  0  0  0  0  0  0
    1.3459    0.8909   -0.0052 C   0  0  0  0  0  0  0  0  0  0  0  0
    0.8729   -0.4105   -0.0016 C   0  0  0  0  0  0  0  0  0  0  0  0
   -0.4900   -0.6531    0.0021 C   0  0  0  0  0  0  0  0  0  0  0  0
   -1.0808   -2.2855    0.0073 Cl  0  0  0  0  0  0  0  0  0  0  0  0
    1.9902   -1.7391    0.0052 Cl  0  0  0  0  0  0  0  0  0  0  0  0
    3.0555    1.1924   -0.0025 Cl  0  0  0  0  0  0  0  0  0  0  0  0
   -1.7827    2.7506   -0.0202 O   0  0  0  0  0  0  0  0  0  0  0  0
    0.8272    2.9652   -0.0151 H   0  0  0  0  0  0  0  0  0  0  0  0
   -2.0380    3.0554    0.8613 H   0  0  0  0  0  0  0  0  0  0  0  0
  1  2  1  0  0  0  0
  2  3  2  0  0  0  0
  3  4  1  0  0  0  0
  4  5  2  0  0  0  0
  5  6  1  0  0  0  0
  6  7  2  0  0  0  0
  2  7  1  0  0  0  0
  7  8  1  0  0  0  0
  6  9  1  0  0  0  0
  5 10  1  0  0  0  0
  3 11  1  0  0  0  0
  4 12  1  0  0  0  0
 11 13  1  0  0  0  0
M  END
$$$$
