C6H2F4O
APtclcactv12211716473D 0   0.00000     0.00000
 
 13 13  0  0  0  0  0  0  0  0999 V2000
   -2.3724    1.0982   -0.0150 F   0  0  0  0  0  0  0  0  0  0  0  0
   -1.2016    0.4241   -0.0100 C   0  0  0  0  0  0  0  0  0  0  0  0
   -0.0000    1.1191   -0.0140 C   0  0  0  0  0  0  0  0  0  0  0  0
    1.2016    0.4242   -0.0084 C   0  0  0  0  0  0  0  0  0  0  0  0
    1.1995   -0.9612    0.0013 C   0  0  0  0  0  0  0  0  0  0  0  0
    0.0000   -1.6525    0.0048 C   0  0  0  0  0  0  0  0  0  0  0  0
   -1.1994   -0.9612    0.0050 C   0  0  0  0  0  0  0  0  0  0  0  0
   -2.3687   -1.6380    0.0084 F   0  0  0  0  0  0  0  0  0  0  0  0
    2.3687   -1.6380    0.0068 F   0  0  0  0  0  0  0  0  0  0  0  0
    2.3723    1.0984   -0.0127 F   0  0  0  0  0  0  0  0  0  0  0  0
   -0.0000    2.4791   -0.0239 O   0  0  0  0  0  0  0  0  0  0  0  0
    0.0001   -2.7324    0.0120 H   0  0  0  0  0  0  0  0  0  0  0  0
   -0.0008    2.8789    0.8566 H   0  0  0  0  0  0  0  0  0  0  0  0
  1  2  1  0  0  0  0
  2  3  2  0  0  0  0
  3  4  1  0  0  0  0
  4  5  2  0  0  0  0
  5  6  1  0  0  0  0
  6  7  2  0  0  0  0
  2  7  1  0  0  0  0
  7  8  1  0  0  0  0
  5  9  1  0  0  0  0
  4 10  1  0  0  0  0
  3 11  1  0  0  0  0
  6 12  1  0  0  0  0
 11 13  1  0  0  0  0
M  END
$$$$
