C6H2Cl3NO2
APtclcactv12211716473D 0   0.00000     0.00000
 
 14 14  0  0  0  0  0  0  0  0999 V2000
    1.2763   -1.9479    0.0022 Cl  0  0  0  0  0  0  0  0  0  0  0  0
    0.4915   -0.3994    0.0011 C   0  0  0  0  0  0  0  0  0  0  0  0
    1.2471    0.7591   -0.0003 C   0  0  0  0  0  0  0  0  0  0  0  0
    0.6224    1.9924   -0.0012 C   0  0  0  0  0  0  0  0  0  0  0  0
   -0.7575    2.0693   -0.0007 C   0  0  0  0  0  0  0  0  0  0  0  0
   -1.5153    0.9117    0.0006 C   0  0  0  0  0  0  0  0  0  0  0  0
   -0.8910   -0.3237   -0.0042 C   0  0  0  0  0  0  0  0  0  0  0  0
   -1.8406   -1.7769   -0.0025 Cl  0  0  0  0  0  0  0  0  0  0  0  0
   -3.2486    1.0086    0.0023 Cl  0  0  0  0  0  0  0  0  0  0  0  0
    2.7251    0.6784   -0.0002 N   0  3  0  0  0  0  0  0  0  0  0  0
    3.3907    1.6984   -0.0014 O   0  0  0  0  0  0  0  0  0  0  0  0
    3.2757   -0.4081    0.0010 O   0  5  0  0  0  0  0  0  0  0  0  0
    1.2132    2.8965   -0.0019 H   0  0  0  0  0  0  0  0  0  0  0  0
   -1.2444    3.0333   -0.0011 H   0  0  0  0  0  0  0  0  0  0  0  0
  1  2  1  0  0  0  0
  2  3  2  0  0  0  0
  3  4  1  0  0  0  0
  4  5  2  0  0  0  0
  5  6  1  0  0  0  0
  6  7  2  0  0  0  0
  2  7  1  0  0  0  0
  7  8  1  0  0  0  0
  6  9  1  0  0  0  0
  3 10  1  0  0  0  0
 10 11  2  0  0  0  0
 10 12  1  0  0  0  0
  4 13  1  0  0  0  0
  5 14  1  0  0  0  0
M  CHG  2  10   1  12  -1
M  END
$$$$
