C12H6Cl4
APtclcactv12111704533D 0   0.00000     0.00000
 
 22 23  0  0  0  0  0  0  0  0999 V2000
    1.1627   -2.3063   -0.1239 Cl  0  0  0  0  0  0  0  0  0  0  0  0
    0.1879   -0.8719   -0.0461 C   0  0  0  0  0  0  0  0  0  0  0  0
    0.7942    0.3818    0.0189 C   0  0  0  0  0  0  0  0  0  0  0  0
    0.0064    1.5296    0.0812 C   0  0  0  0  0  0  0  0  0  0  0  0
   -1.3702    1.4209    0.0783 C   0  0  0  0  0  0  0  0  0  0  0  0
   -1.9691    0.1731    0.0136 C   0  0  0  0  0  0  0  0  0  0  0  0
   -1.1911   -0.9704   -0.0543 C   0  0  0  0  0  0  0  0  0  0  0  0
   -1.9483   -2.5305   -0.1351 Cl  0  0  0  0  0  0  0  0  0  0  0  0
   -3.7002    0.0433    0.0103 Cl  0  0  0  0  0  0  0  0  0  0  0  0
   -2.3523    2.8503    0.1565 Cl  0  0  0  0  0  0  0  0  0  0  0  0
    2.2737    0.4937    0.0223 C   0  0  0  0  0  0  0  0  0  0  0  0
    2.9110    1.3665   -0.8574 C   0  0  0  0  0  0  0  0  0  0  0  0
    4.2875    1.4668   -0.8496 C   0  0  0  0  0  0  0  0  0  0  0  0
    5.0343    0.7031    0.0292 C   0  0  0  0  0  0  0  0  0  0  0  0
    4.4069   -0.1652    0.9043 C   0  0  0  0  0  0  0  0  0  0  0  0
    3.0307   -0.2694    0.9091 C   0  0  0  0  0  0  0  0  0  0  0  0
    0.4718    2.5028    0.1321 H   0  0  0  0  0  0  0  0  0  0  0  0
    2.3289    1.9630   -1.5442 H   0  0  0  0  0  0  0  0  0  0  0  0
    4.7825    2.1427   -1.5312 H   0  0  0  0  0  0  0  0  0  0  0  0
    6.1112    0.7848    0.0319 H   0  0  0  0  0  0  0  0  0  0  0  0
    4.9948   -0.7595    1.5881 H   0  0  0  0  0  0  0  0  0  0  0  0
    2.5419   -0.9477    1.5928 H   0  0  0  0  0  0  0  0  0  0  0  0
  1  2  1  0  0  0  0
  2  3  2  0  0  0  0
  3  4  1  0  0  0  0
  4  5  2  0  0  0  0
  5  6  1  0  0  0  0
  6  7  2  0  0  0  0
  2  7  1  0  0  0  0
  7  8  1  0  0  0  0
  6  9  1  0  0  0  0
  5 10  1  0  0  0  0
  3 11  1  0  0  0  0
 11 12  2  0  0  0  0
 12 13  1  0  0  0  0
 13 14  2  0  0  0  0
 14 15  1  0  0  0  0
 15 16  2  0  0  0  0
 11 16  1  0  0  0  0
  4 17  1  0  0  0  0
 12 18  1  0  0  0  0
 13 19  1  0  0  0  0
 14 20  1  0  0  0  0
 15 21  1  0  0  0  0
 16 22  1  0  0  0  0
M  END
$$$$
