C6HCl4NO2
APtclcactv12211716473D 0   0.00000     0.00000
 
 14 14  0  0  0  0  0  0  0  0999 V2000
   -2.3612   -1.5844   -0.0020 Cl  0  0  0  0  0  0  0  0  0  0  0  0
   -1.0002   -0.5068   -0.0011 C   0  0  0  0  0  0  0  0  0  0  0  0
   -1.2015    0.8616    0.0001 C   0  0  0  0  0  0  0  0  0  0  0  0
   -0.1182    1.7204    0.0008 C   0  0  0  0  0  0  0  0  0  0  0  0
    1.1682    1.2122    0.0003 C   0  0  0  0  0  0  0  0  0  0  0  0
    1.3715   -0.1575   -0.0009 C   0  0  0  0  0  0  0  0  0  0  0  0
    0.2870   -1.0172    0.0042 C   0  0  0  0  0  0  0  0  0  0  0  0
    0.5402   -2.7347    0.0027 Cl  0  0  0  0  0  0  0  0  0  0  0  0
    2.9858   -0.7959   -0.0027 Cl  0  0  0  0  0  0  0  0  0  0  0  0
    2.5279    2.2915    0.0006 Cl  0  0  0  0  0  0  0  0  0  0  0  0
   -2.5776    1.4068    0.0001 N   0  3  0  0  0  0  0  0  0  0  0  0
   -2.7553    2.6118    0.0012 O   0  0  0  0  0  0  0  0  0  0  0  0
   -3.5323    0.6505   -0.0009 O   0  5  0  0  0  0  0  0  0  0  0  0
   -0.2764    2.7887    0.0014 H   0  0  0  0  0  0  0  0  0  0  0  0
  1  2  1  0  0  0  0
  2  3  2  0  0  0  0
  3  4  1  0  0  0  0
  4  5  2  0  0  0  0
  5  6  1  0  0  0  0
  6  7  2  0  0  0  0
  2  7  1  0  0  0  0
  7  8  1  0  0  0  0
  6  9  1  0  0  0  0
  5 10  1  0  0  0  0
  3 11  1  0  0  0  0
 11 12  2  0  0  0  0
 11 13  1  0  0  0  0
  4 14  1  0  0  0  0
M  CHG  2  11   1  13  -1
M  END
$$$$
