C12H6Cl4
APtclcactv12111704533D 0   0.00000     0.00000
 
 22 23  0  0  0  0  0  0  0  0999 V2000
   -0.2877   -2.3838   -0.1264 Cl  0  0  0  0  0  0  0  0  0  0  0  0
   -1.1319   -0.8691   -0.0454 C   0  0  0  0  0  0  0  0  0  0  0  0
   -0.4174    0.3263    0.0175 C   0  0  0  0  0  0  0  0  0  0  0  0
   -1.1014    1.5386    0.0818 C   0  0  0  0  0  0  0  0  0  0  0  0
   -2.4825    1.5507    0.0829 C   0  0  0  0  0  0  0  0  0  0  0  0
   -3.1881    0.3612    0.0207 C   0  0  0  0  0  0  0  0  0  0  0  0
   -2.5146   -0.8455   -0.0490 C   0  0  0  0  0  0  0  0  0  0  0  0
   -3.4066   -2.3328   -0.1267 Cl  0  0  0  0  0  0  0  0  0  0  0  0
   -3.3354    3.0606    0.1630 Cl  0  0  0  0  0  0  0  0  0  0  0  0
    1.0662    0.3077    0.0165 C   0  0  0  0  0  0  0  0  0  0  0  0
    1.7749    1.1212   -0.8654 C   0  0  0  0  0  0  0  0  0  0  0  0
    3.1547    1.1007   -0.8622 C   0  0  0  0  0  0  0  0  0  0  0  0
    3.8349    0.2733    0.0150 C   0  0  0  0  0  0  0  0  0  0  0  0
    3.1353   -0.5371    0.8927 C   0  0  0  0  0  0  0  0  0  0  0  0
    1.7555   -0.5191    0.9014 C   0  0  0  0  0  0  0  0  0  0  0  0
    5.5707    0.2516    0.0138 Cl  0  0  0  0  0  0  0  0  0  0  0  0
   -0.5523    2.4673    0.1311 H   0  0  0  0  0  0  0  0  0  0  0  0
   -4.2680    0.3754    0.0222 H   0  0  0  0  0  0  0  0  0  0  0  0
    1.2452    1.7665   -1.5505 H   0  0  0  0  0  0  0  0  0  0  0  0
    3.7048    1.7308   -1.5453 H   0  0  0  0  0  0  0  0  0  0  0  0
    3.6704   -1.1811    1.5749 H   0  0  0  0  0  0  0  0  0  0  0  0
    1.2107   -1.1517    1.5865 H   0  0  0  0  0  0  0  0  0  0  0  0
  1  2  1  0  0  0  0
  2  3  2  0  0  0  0
  3  4  1  0  0  0  0
  4  5  2  0  0  0  0
  5  6  1  0  0  0  0
  6  7  2  0  0  0  0
  2  7  1  0  0  0  0
  7  8  1  0  0  0  0
  5  9  1  0  0  0  0
  3 10  1  0  0  0  0
 10 11  2  0  0  0  0
 11 12  1  0  0  0  0
 12 13  2  0  0  0  0
 13 14  1  0  0  0  0
 14 15  2  0  0  0  0
 10 15  1  0  0  0  0
 13 16  1  0  0  0  0
  4 17  1  0  0  0  0
  6 18  1  0  0  0  0
 11 19  1  0  0  0  0
 12 20  1  0  0  0  0
 14 21  1  0  0  0  0
 15 22  1  0  0  0  0
M  END
$$$$
