C8H5Cl3O3
APtclcactv12151716253D 0   0.00000     0.00000
 
 19 19  0  0  0  0  0  0  0  0999 V2000
   -0.8969   -2.1480    0.3597 Cl  0  0  0  0  0  0  0  0  0  0  0  0
   -1.1034   -0.4380    0.1432 C   0  0  0  0  0  0  0  0  0  0  0  0
   -0.0081    0.4096    0.2249 C   0  0  0  0  0  0  0  0  0  0  0  0
    1.2284   -0.0976    0.4740 O   0  0  0  0  0  0  0  0  0  0  0  0
    2.0154   -0.4738   -0.6578 C   0  0  0  0  0  0  0  0  0  0  0  0
    3.3437   -1.0104   -0.1900 C   0  0  0  0  0  0  0  0  0  0  0  0
    3.5910   -1.0651    0.9914 O   0  0  0  0  0  0  0  0  0  0  0  0
    4.2521   -1.4276   -1.0859 O   0  0  0  0  0  0  0  0  0  0  0  0
   -0.1768    1.7766    0.0513 C   0  0  0  0  0  0  0  0  0  0  0  0
   -1.4349    2.2902   -0.2025 C   0  0  0  0  0  0  0  0  0  0  0  0
   -2.5254    1.4440   -0.2835 C   0  0  0  0  0  0  0  0  0  0  0  0
   -2.3599    0.0806   -0.1167 C   0  0  0  0  0  0  0  0  0  0  0  0
   -3.7314   -0.9787   -0.2191 Cl  0  0  0  0  0  0  0  0  0  0  0  0
    1.1913    2.8404    0.1533 Cl  0  0  0  0  0  0  0  0  0  0  0  0
    1.4919   -1.2435   -1.2248 H   0  0  0  0  0  0  0  0  0  0  0  0
    2.1786    0.3972   -1.2925 H   0  0  0  0  0  0  0  0  0  0  0  0
    5.0894   -1.7637   -0.7380 H   0  0  0  0  0  0  0  0  0  0  0  0
   -1.5663    3.3537   -0.3372 H   0  0  0  0  0  0  0  0  0  0  0  0
   -3.5074    1.8475   -0.4815 H   0  0  0  0  0  0  0  0  0  0  0  0
  1  2  1  0  0  0  0
  2  3  2  0  0  0  0
  3  4  1  0  0  0  0
  4  5  1  0  0  0  0
  5  6  1  0  0  0  0
  6  7  2  0  0  0  0
  6  8  1  0  0  0  0
  3  9  1  0  0  0  0
  9 10  2  0  0  0  0
 10 11  1  0  0  0  0
 11 12  2  0  0  0  0
  2 12  1  0  0  0  0
 12 13  1  0  0  0  0
  9 14  1  0  0  0  0
  5 15  1  0  0  0  0
  5 16  1  0  0  0  0
  8 17  1  0  0  0  0
 10 18  1  0  0  0  0
 11 19  1  0  0  0  0
M  END
$$$$
