C12H5Cl5
APtclcactv12111704523D 0   0.00000     0.00000
 
 22 23  0  0  0  0  0  0  0  0999 V2000
   -1.6520   -2.1935   -0.2001 Cl  0  0  0  0  0  0  0  0  0  0  0  0
   -2.0966   -0.5229   -0.0426 C   0  0  0  0  0  0  0  0  0  0  0  0
   -1.1174    0.4417    0.1899 C   0  0  0  0  0  0  0  0  0  0  0  0
   -1.4822    1.7819    0.3148 C   0  0  0  0  0  0  0  0  0  0  0  0
   -2.8101    2.1467    0.2076 C   0  0  0  0  0  0  0  0  0  0  0  0
   -3.7780    1.1859   -0.0232 C   0  0  0  0  0  0  0  0  0  0  0  0
   -3.4222   -0.1452   -0.1533 C   0  0  0  0  0  0  0  0  0  0  0  0
   -4.6435   -1.3442   -0.4434 Cl  0  0  0  0  0  0  0  0  0  0  0  0
   -0.2695    2.9897    0.6051 Cl  0  0  0  0  0  0  0  0  0  0  0  0
    0.3073    0.0439    0.3047 C   0  0  0  0  0  0  0  0  0  0  0  0
    1.2322    0.4771   -0.6429 C   0  0  0  0  0  0  0  0  0  0  0  0
    2.5574    0.1039   -0.5316 C   0  0  0  0  0  0  0  0  0  0  0  0
    2.9665   -0.6999    0.5198 C   0  0  0  0  0  0  0  0  0  0  0  0
    2.0504   -1.1327    1.4631 C   0  0  0  0  0  0  0  0  0  0  0  0
    0.7256   -0.7596    1.3639 C   0  0  0  0  0  0  0  0  0  0  0  0
    4.6332   -1.1665    0.6547 Cl  0  0  0  0  0  0  0  0  0  0  0  0
    3.7117    0.6424   -1.7112 Cl  0  0  0  0  0  0  0  0  0  0  0  0
   -3.0933    3.1843    0.3046 H   0  0  0  0  0  0  0  0  0  0  0  0
   -4.8149    1.4761   -0.1062 H   0  0  0  0  0  0  0  0  0  0  0  0
    0.9135    1.1032   -1.4632 H   0  0  0  0  0  0  0  0  0  0  0  0
    2.3740   -1.7595    2.2809 H   0  0  0  0  0  0  0  0  0  0  0  0
    0.0120   -1.0979    2.1005 H   0  0  0  0  0  0  0  0  0  0  0  0
  1  2  1  0  0  0  0
  2  3  2  0  0  0  0
  3  4  1  0  0  0  0
  4  5  2  0  0  0  0
  5  6  1  0  0  0  0
  6  7  2  0  0  0  0
  2  7  1  0  0  0  0
  7  8  1  0  0  0  0
  4  9  1  0  0  0  0
  3 10  1  0  0  0  0
 10 11  2  0  0  0  0
 11 12  1  0  0  0  0
 12 13  2  0  0  0  0
 13 14  1  0  0  0  0
 14 15  2  0  0  0  0
 10 15  1  0  0  0  0
 13 16  1  0  0  0  0
 12 17  1  0  0  0  0
  5 18  1  0  0  0  0
  6 19  1  0  0  0  0
 11 20  1  0  0  0  0
 14 21  1  0  0  0  0
 15 22  1  0  0  0  0
M  END
$$$$
