C12H7Cl3
APtclcactv12111704543D 0   0.00000     0.00000
 
 22 23  0  0  0  0  0  0  0  0999 V2000
   -0.9824   -2.1324   -0.1127 Cl  0  0  0  0  0  0  0  0  0  0  0  0
   -1.0851   -0.4014   -0.0299 C   0  0  0  0  0  0  0  0  0  0  0  0
    0.0777    0.3658    0.0189 C   0  0  0  0  0  0  0  0  0  0  0  0
   -0.0128    1.7559    0.0848 C   0  0  0  0  0  0  0  0  0  0  0  0
   -1.2524    2.3649    0.1013 C   0  0  0  0  0  0  0  0  0  0  0  0
   -2.4033    1.5992    0.0531 C   0  0  0  0  0  0  0  0  0  0  0  0
   -2.3205    0.2197   -0.0181 C   0  0  0  0  0  0  0  0  0  0  0  0
   -3.7702   -0.7334   -0.0787 Cl  0  0  0  0  0  0  0  0  0  0  0  0
    1.4301    2.7192    0.1465 Cl  0  0  0  0  0  0  0  0  0  0  0  0
    1.4065   -0.2940    0.0013 C   0  0  0  0  0  0  0  0  0  0  0  0
    2.2708   -0.0973   -1.0739 C   0  0  0  0  0  0  0  0  0  0  0  0
    3.5058   -0.7131   -1.0848 C   0  0  0  0  0  0  0  0  0  0  0  0
    3.8863   -1.5243   -0.0310 C   0  0  0  0  0  0  0  0  0  0  0  0
    3.0322   -1.7235    1.0386 C   0  0  0  0  0  0  0  0  0  0  0  0
    1.7971   -1.1080    1.0627 C   0  0  0  0  0  0  0  0  0  0  0  0
   -1.3232    3.4414    0.1523 H   0  0  0  0  0  0  0  0  0  0  0  0
   -3.3702    2.0801    0.0667 H   0  0  0  0  0  0  0  0  0  0  0  0
    1.9745    0.5357   -1.8974 H   0  0  0  0  0  0  0  0  0  0  0  0
    4.1763   -0.5616   -1.9178 H   0  0  0  0  0  0  0  0  0  0  0  0
    4.8537   -2.0043   -0.0437 H   0  0  0  0  0  0  0  0  0  0  0  0
    3.3342   -2.3582    1.8586 H   0  0  0  0  0  0  0  0  0  0  0  0
    1.1310   -1.2642    1.8983 H   0  0  0  0  0  0  0  0  0  0  0  0
  1  2  1  0  0  0  0
  2  3  2  0  0  0  0
  3  4  1  0  0  0  0
  4  5  2  0  0  0  0
  5  6  1  0  0  0  0
  6  7  2  0  0  0  0
  2  7  1  0  0  0  0
  7  8  1  0  0  0  0
  4  9  1  0  0  0  0
  3 10  1  0  0  0  0
 10 11  2  0  0  0  0
 11 12  1  0  0  0  0
 12 13  2  0  0  0  0
 13 14  1  0  0  0  0
 14 15  2  0  0  0  0
 10 15  1  0  0  0  0
  5 16  1  0  0  0  0
  6 17  1  0  0  0  0
 11 18  1  0  0  0  0
 12 19  1  0  0  0  0
 13 20  1  0  0  0  0
 14 21  1  0  0  0  0
 15 22  1  0  0  0  0
M  END
$$$$
