C6H3Cl3O
APtclcactv12211716483D 0   0.00000     0.00000
 
 13 13  0  0  0  0  0  0  0  0999 V2000
   -1.6608   -1.8290    0.0142 Cl  0  0  0  0  0  0  0  0  0  0  0  0
   -0.5990   -0.4556    0.0077 C   0  0  0  0  0  0  0  0  0  0  0  0
    0.7760   -0.6408    0.0095 C   0  0  0  0  0  0  0  0  0  0  0  0
    1.6222    0.4597    0.0044 C   0  0  0  0  0  0  0  0  0  0  0  0
    1.0936    1.7370   -0.0025 C   0  0  0  0  0  0  0  0  0  0  0  0
   -0.2769    1.9197   -0.0043 C   0  0  0  0  0  0  0  0  0  0  0  0
   -1.1231    0.8252   -0.0050 C   0  0  0  0  0  0  0  0  0  0  0  0
   -2.8433    1.0586   -0.0072 Cl  0  0  0  0  0  0  0  0  0  0  0  0
    3.3432    0.2319    0.0072 Cl  0  0  0  0  0  0  0  0  0  0  0  0
    1.2937   -1.8978    0.0168 O   0  0  0  0  0  0  0  0  0  0  0  0
    1.7519    2.5932   -0.0061 H   0  0  0  0  0  0  0  0  0  0  0  0
   -0.6876    2.9186   -0.0093 H   0  0  0  0  0  0  0  0  0  0  0  0
    1.4440   -2.2664   -0.8645 H   0  0  0  0  0  0  0  0  0  0  0  0
  1  2  1  0  0  0  0
  2  3  2  0  0  0  0
  3  4  1  0  0  0  0
  4  5  2  0  0  0  0
  5  6  1  0  0  0  0
  6  7  2  0  0  0  0
  2  7  1  0  0  0  0
  7  8  1  0  0  0  0
  4  9  1  0  0  0  0
  3 10  1  0  0  0  0
  5 11  1  0  0  0  0
  6 12  1  0  0  0  0
 10 13  1  0  0  0  0
M  END
$$$$
