C12H5Cl5
APtclcactv12111704523D 0   0.00000     0.00000
 
 22 23  0  0  0  0  0  0  0  0999 V2000
    0.2877   -2.4188   -0.1274 Cl  0  0  0  0  0  0  0  0  0  0  0  0
   -0.5902   -0.9232   -0.0484 C   0  0  0  0  0  0  0  0  0  0  0  0
    0.0976    0.2879    0.0149 C   0  0  0  0  0  0  0  0  0  0  0  0
   -0.6127    1.4851    0.0782 C   0  0  0  0  0  0  0  0  0  0  0  0
   -1.9935    1.4674    0.0780 C   0  0  0  0  0  0  0  0  0  0  0  0
   -2.6735    0.2618    0.0154 C   0  0  0  0  0  0  0  0  0  0  0  0
   -1.9727   -0.9306   -0.0539 C   0  0  0  0  0  0  0  0  0  0  0  0
   -2.8312   -2.4374   -0.1320 Cl  0  0  0  0  0  0  0  0  0  0  0  0
   -4.4094    0.2464    0.0167 Cl  0  0  0  0  0  0  0  0  0  0  0  0
   -2.8791    2.9585    0.1568 Cl  0  0  0  0  0  0  0  0  0  0  0  0
    1.5812    0.3019    0.0154 C   0  0  0  0  0  0  0  0  0  0  0  0
    2.2727    1.1307   -0.8661 C   0  0  0  0  0  0  0  0  0  0  0  0
    3.6526    1.1405   -0.8614 C   0  0  0  0  0  0  0  0  0  0  0  0
    4.3500    0.3289    0.0169 C   0  0  0  0  0  0  0  0  0  0  0  0
    3.6676   -0.4961    0.8946 C   0  0  0  0  0  0  0  0  0  0  0  0
    2.2877   -0.5093    0.9013 C   0  0  0  0  0  0  0  0  0  0  0  0
    6.0859    0.3454    0.0175 Cl  0  0  0  0  0  0  0  0  0  0  0  0
   -0.0840    2.4255    0.1277 H   0  0  0  0  0  0  0  0  0  0  0  0
    1.7296    1.7639   -1.5519 H   0  0  0  0  0  0  0  0  0  0  0  0
    4.1894    1.7822   -1.5444 H   0  0  0  0  0  0  0  0  0  0  0  0
    4.2160   -1.1278    1.5777 H   0  0  0  0  0  0  0  0  0  0  0  0
    1.7562   -1.1529    1.5866 H   0  0  0  0  0  0  0  0  0  0  0  0
  1  2  1  0  0  0  0
  2  3  2  0  0  0  0
  3  4  1  0  0  0  0
  4  5  2  0  0  0  0
  5  6  1  0  0  0  0
  6  7  2  0  0  0  0
  2  7  1  0  0  0  0
  7  8  1  0  0  0  0
  6  9  1  0  0  0  0
  5 10  1  0  0  0  0
  3 11  1  0  0  0  0
 11 12  2  0  0  0  0
 12 13  1  0  0  0  0
 13 14  2  0  0  0  0
 14 15  1  0  0  0  0
 15 16  2  0  0  0  0
 11 16  1  0  0  0  0
 14 17  1  0  0  0  0
  4 18  1  0  0  0  0
 12 19  1  0  0  0  0
 13 20  1  0  0  0  0
 15 21  1  0  0  0  0
 16 22  1  0  0  0  0
M  END
$$$$
