C7H4N4O9
APtclcactv12151716123D 0   0.00000     0.00000
 
 24 24  0  0  0  0  0  0  0  0999 V2000
    2.4834    1.0995    0.1568 N   0  3  0  0  0  0  0  0  0  0  0  0
    3.0104    1.3220    1.2321 O   0  0  0  0  0  0  0  0  0  0  0  0
    3.0145    1.4784   -0.8717 O   0  5  0  0  0  0  0  0  0  0  0  0
    1.2005    0.3633    0.0996 C   0  0  0  0  0  0  0  0  0  0  0  0
   -0.0004    1.0561    0.1516 C   0  0  0  0  0  0  0  0  0  0  0  0
   -1.2010    0.3632    0.0978 C   0  0  0  0  0  0  0  0  0  0  0  0
   -1.1982   -1.0143   -0.0074 C   0  0  0  0  0  0  0  0  0  0  0  0
    0.0000   -1.7023   -0.0591 C   0  0  0  0  0  0  0  0  0  0  0  0
    1.1980   -1.0136   -0.0114 C   0  0  0  0  0  0  0  0  0  0  0  0
    2.4789   -1.7533   -0.0669 N   0  3  0  0  0  0  0  0  0  0  0  0
    2.4773   -2.9682   -0.1546 O   0  0  0  0  0  0  0  0  0  0  0  0
    3.5345   -1.1472   -0.0249 O   0  5  0  0  0  0  0  0  0  0  0  0
   -2.4789   -1.7542   -0.0644 N   0  3  0  0  0  0  0  0  0  0  0  0
   -2.4769   -2.9687   -0.1572 O   0  0  0  0  0  0  0  0  0  0  0  0
   -3.5346   -1.1486   -0.0185 O   0  5  0  0  0  0  0  0  0  0  0  0
   -2.4841    1.0991    0.1535 N   0  3  0  0  0  0  0  0  0  0  0  0
   -3.0114    1.4826   -0.8753 O   0  0  0  0  0  0  0  0  0  0  0  0
   -3.0126    1.3212    1.2282 O   0  5  0  0  0  0  0  0  0  0  0  0
   -0.0005    2.4111    0.2555 O   0  0  0  0  0  0  0  0  0  0  0  0
    0.0006    3.1553   -0.9644 C   0  0  0  0  0  0  0  0  0  0  0  0
    0.0002   -2.7792   -0.1410 H   0  0  0  0  0  0  0  0  0  0  0  0
    0.8911    2.9060   -1.5413 H   0  0  0  0  0  0  0  0  0  0  0  0
   -0.8889    2.9058   -1.5430 H   0  0  0  0  0  0  0  0  0  0  0  0
    0.0003    4.2218   -0.7393 H   0  0  0  0  0  0  0  0  0  0  0  0
  1  2  2  0  0  0  0
  1  3  1  0  0  0  0
  1  4  1  0  0  0  0
  4  5  2  0  0  0  0
  5  6  1  0  0  0  0
  6  7  2  0  0  0  0
  7  8  1  0  0  0  0
  8  9  2  0  0  0  0
  4  9  1  0  0  0  0
  9 10  1  0  0  0  0
 10 11  2  0  0  0  0
 10 12  1  0  0  0  0
  7 13  1  0  0  0  0
 13 14  2  0  0  0  0
 13 15  1  0  0  0  0
  6 16  1  0  0  0  0
 16 17  2  0  0  0  0
 16 18  1  0  0  0  0
  5 19  1  0  0  0  0
 19 20  1  0  0  0  0
  8 21  1  0  0  0  0
 20 22  1  0  0  0  0
 20 23  1  0  0  0  0
 20 24  1  0  0  0  0
M  CHG  8   1   1   3  -1  10   1  12  -1  13   1  15  -1  16   1  18  -1
M  END
$$$$
