C12H6Cl4
APtclcactv12111704533D 0   0.00000     0.00000
 
 22 23  0  0  0  0  0  0  0  0999 V2000
   -1.7799   -1.7527   -0.5323 Cl  0  0  0  0  0  0  0  0  0  0  0  0
   -2.1479   -0.1381   -0.0115 C   0  0  0  0  0  0  0  0  0  0  0  0
   -1.1231    0.7167    0.3916 C   0  0  0  0  0  0  0  0  0  0  0  0
   -1.4262    2.0115    0.8084 C   0  0  0  0  0  0  0  0  0  0  0  0
   -2.7375    2.4415    0.8203 C   0  0  0  0  0  0  0  0  0  0  0  0
   -3.7517    1.5902    0.4200 C   0  0  0  0  0  0  0  0  0  0  0  0
   -3.4577    0.3052   -0.0011 C   0  0  0  0  0  0  0  0  0  0  0  0
   -4.7362   -0.7567   -0.5025 Cl  0  0  0  0  0  0  0  0  0  0  0  0
    0.2851    0.2495    0.3775 C   0  0  0  0  0  0  0  0  0  0  0  0
    1.2710    1.0207   -0.2342 C   0  0  0  0  0  0  0  0  0  0  0  0
    2.5806    0.5815   -0.2442 C   0  0  0  0  0  0  0  0  0  0  0  0
    2.9134   -0.6237    0.3523 C   0  0  0  0  0  0  0  0  0  0  0  0
    1.9364   -1.3930    0.9606 C   0  0  0  0  0  0  0  0  0  0  0  0
    0.6265   -0.9594    0.9810 C   0  0  0  0  0  0  0  0  0  0  0  0
    4.5607   -1.1713    0.3363 Cl  0  0  0  0  0  0  0  0  0  0  0  0
    3.8108    1.5408   -1.0057 Cl  0  0  0  0  0  0  0  0  0  0  0  0
   -0.6359    2.6775    1.1220 H   0  0  0  0  0  0  0  0  0  0  0  0
   -2.9724    3.4449    1.1433 H   0  0  0  0  0  0  0  0  0  0  0  0
   -4.7764    1.9312    0.4318 H   0  0  0  0  0  0  0  0  0  0  0  0
    1.0118    1.9600   -0.6999 H   0  0  0  0  0  0  0  0  0  0  0  0
    2.2005   -2.3322    1.4237 H   0  0  0  0  0  0  0  0  0  0  0  0
   -0.1346   -1.5604    1.4563 H   0  0  0  0  0  0  0  0  0  0  0  0
  1  2  1  0  0  0  0
  2  3  2  0  0  0  0
  3  4  1  0  0  0  0
  4  5  2  0  0  0  0
  5  6  1  0  0  0  0
  6  7  2  0  0  0  0
  2  7  1  0  0  0  0
  7  8  1  0  0  0  0
  3  9  1  0  0  0  0
  9 10  2  0  0  0  0
 10 11  1  0  0  0  0
 11 12  2  0  0  0  0
 12 13  1  0  0  0  0
 13 14  2  0  0  0  0
  9 14  1  0  0  0  0
 12 15  1  0  0  0  0
 11 16  1  0  0  0  0
  4 17  1  0  0  0  0
  5 18  1  0  0  0  0
  6 19  1  0  0  0  0
 10 20  1  0  0  0  0
 13 21  1  0  0  0  0
 14 22  1  0  0  0  0
M  END
$$$$
