C8H18
APtclcactv12151716393D 0   0.00000     0.00000
 
 26 25  0  0  0  0  0  0  0  0999 V2000
    1.5552    1.5941    0.3353 C   0  0  0  0  0  0  0  0  0  0  0  0
    1.2723    0.2090   -0.2498 C   0  0  0  0  0  0  0  0  0  0  0  0
    2.4678   -0.7092    0.0119 C   0  0  0  0  0  0  0  0  0  0  0  0
    0.0237   -0.3785    0.4112 C   0  0  0  0  0  0  0  0  0  0  0  0
   -1.1734    0.5358    0.1431 C   0  0  0  0  0  0  0  0  0  0  0  0
   -1.4831    0.5443   -1.3552 C   0  0  0  0  0  0  0  0  0  0  0  0
   -2.3912    0.0204    0.9127 C   0  0  0  0  0  0  0  0  0  0  0  0
   -0.2549   -1.7668   -0.1684 C   0  0  0  0  0  0  0  0  0  0  0  0
    2.5088    1.9610   -0.0444 H   0  0  0  0  0  0  0  0  0  0  0  0
    0.7601    2.2806    0.0447 H   0  0  0  0  0  0  0  0  0  0  0  0
    1.5985    1.5274    1.4224 H   0  0  0  0  0  0  0  0  0  0  0  0
    1.1084    0.2949   -1.3240 H   0  0  0  0  0  0  0  0  0  0  0  0
    2.2662   -1.6959   -0.4049 H   0  0  0  0  0  0  0  0  0  0  0  0
    3.3573   -0.2906   -0.4590 H   0  0  0  0  0  0  0  0  0  0  0  0
    2.6317   -0.7950    1.0861 H   0  0  0  0  0  0  0  0  0  0  0  0
    0.1856   -0.4593    1.4861 H   0  0  0  0  0  0  0  0  0  0  0  0
   -0.9381    1.5482    0.4712 H   0  0  0  0  0  0  0  0  0  0  0  0
   -1.7185   -0.4682   -1.6833 H   0  0  0  0  0  0  0  0  0  0  0  0
   -2.3360    1.1956   -1.5463 H   0  0  0  0  0  0  0  0  0  0  0  0
   -0.6155    0.9114   -1.9035 H   0  0  0  0  0  0  0  0  0  0  0  0
   -2.6951   -0.9449    0.5077 H   0  0  0  0  0  0  0  0  0  0  0  0
   -2.1344   -0.0920    1.9660 H   0  0  0  0  0  0  0  0  0  0  0  0
   -3.2117    0.7310    0.8125 H   0  0  0  0  0  0  0  0  0  0  0  0
    0.5980   -2.4181    0.0227 H   0  0  0  0  0  0  0  0  0  0  0  0
   -1.1444   -2.1853    0.3026 H   0  0  0  0  0  0  0  0  0  0  0  0
   -0.4167   -1.6860   -1.2432 H   0  0  0  0  0  0  0  0  0  0  0  0
  1  2  1  0  0  0  0
  2  3  1  0  0  0  0
  2  4  1  0  0  0  0
  4  5  1  0  0  0  0
  5  6  1  0  0  0  0
  5  7  1  0  0  0  0
  4  8  1  0  0  0  0
  1  9  1  0  0  0  0
  1 10  1  0  0  0  0
  1 11  1  0  0  0  0
  2 12  1  0  0  0  0
  3 13  1  0  0  0  0
  3 14  1  0  0  0  0
  3 15  1  0  0  0  0
  4 16  1  0  0  0  0
  5 17  1  0  0  0  0
  6 18  1  0  0  0  0
  6 19  1  0  0  0  0
  6 20  1  0  0  0  0
  7 21  1  0  0  0  0
  7 22  1  0  0  0  0
  7 23  1  0  0  0  0
  8 24  1  0  0  0  0
  8 25  1  0  0  0  0
  8 26  1  0  0  0  0
M  END
$$$$
