C12H12
APtclcactv12111704573D 0   0.00000     0.00000
 
 24 25  0  0  0  0  0  0  0  0999 V2000
    3.0211    1.4390    0.0012 C   0  0  0  0  0  0  0  0  0  0  0  0
    1.7095    0.6969    0.0015 C   0  0  0  0  0  0  0  0  0  0  0  0
    0.5429    1.3977    0.0005 C   0  0  0  0  0  0  0  0  0  0  0  0
   -0.6821    0.7088    0.0004 C   0  0  0  0  0  0  0  0  0  0  0  0
   -1.9067    1.3975   -0.0012 C   0  0  0  0  0  0  0  0  0  0  0  0
   -3.0737    0.6966   -0.0017 C   0  0  0  0  0  0  0  0  0  0  0  0
   -3.0737   -0.6967   -0.0002 C   0  0  0  0  0  0  0  0  0  0  0  0
   -1.9067   -1.3975    0.0013 C   0  0  0  0  0  0  0  0  0  0  0  0
   -0.6821   -0.7087    0.0013 C   0  0  0  0  0  0  0  0  0  0  0  0
    0.5429   -1.3977    0.0023 C   0  0  0  0  0  0  0  0  0  0  0  0
    1.7095   -0.6969   -0.0029 C   0  0  0  0  0  0  0  0  0  0  0  0
    3.0211   -1.4391   -0.0024 C   0  0  0  0  0  0  0  0  0  0  0  0
    3.3370    1.6189    1.0288 H   0  0  0  0  0  0  0  0  0  0  0  0
    3.7757    0.8429   -0.5119 H   0  0  0  0  0  0  0  0  0  0  0  0
    2.8992    2.3920   -0.5136 H   0  0  0  0  0  0  0  0  0  0  0  0
    0.5585    2.4776    0.0002 H   0  0  0  0  0  0  0  0  0  0  0  0
   -1.9222    2.4774   -0.0016 H   0  0  0  0  0  0  0  0  0  0  0  0
   -4.0136    1.2285   -0.0029 H   0  0  0  0  0  0  0  0  0  0  0  0
   -4.0136   -1.2286    0.0001 H   0  0  0  0  0  0  0  0  0  0  0  0
   -1.9220   -2.4774    0.0028 H   0  0  0  0  0  0  0  0  0  0  0  0
    0.5583   -2.4775    0.0037 H   0  0  0  0  0  0  0  0  0  0  0  0
    3.3353   -1.6224   -1.0299 H   0  0  0  0  0  0  0  0  0  0  0  0
    3.7766   -0.8413    0.5075 H   0  0  0  0  0  0  0  0  0  0  0  0
    2.9000   -2.3904    0.5157 H   0  0  0  0  0  0  0  0  0  0  0  0
  1  2  1  0  0  0  0
  2  3  2  0  0  0  0
  3  4  1  0  0  0  0
  4  5  2  0  0  0  0
  5  6  1  0  0  0  0
  6  7  2  0  0  0  0
  7  8  1  0  0  0  0
  8  9  2  0  0  0  0
  4  9  1  0  0  0  0
  9 10  1  0  0  0  0
 10 11  2  0  0  0  0
  2 11  1  0  0  0  0
 11 12  1  0  0  0  0
  1 13  1  0  0  0  0
  1 14  1  0  0  0  0
  1 15  1  0  0  0  0
  3 16  1  0  0  0  0
  5 17  1  0  0  0  0
  6 18  1  0  0  0  0
  7 19  1  0  0  0  0
  8 20  1  0  0  0  0
 10 21  1  0  0  0  0
 12 22  1  0  0  0  0
 12 23  1  0  0  0  0
 12 24  1  0  0  0  0
M  END
$$$$
