C8H6Cl2O3
APtclcactv12151716253D 0   0.00000     0.00000
 
 19 19  0  0  0  0  0  0  0  0999 V2000
   -0.9575   -1.9417    0.0020 Cl  0  0  0  0  0  0  0  0  0  0  0  0
   -1.0193   -0.2068    0.0020 C   0  0  0  0  0  0  0  0  0  0  0  0
    0.1566    0.5304    0.0012 C   0  0  0  0  0  0  0  0  0  0  0  0
    1.3583   -0.1049    0.0006 O   0  0  0  0  0  0  0  0  0  0  0  0
    2.5269    0.7175   -0.0002 C   0  0  0  0  0  0  0  0  0  0  0  0
    3.7554   -0.1553   -0.0008 C   0  0  0  0  0  0  0  0  0  0  0  0
    3.6419   -1.3582   -0.0007 O   0  0  0  0  0  0  0  0  0  0  0  0
    4.9758    0.4036   -0.0016 O   0  0  0  0  0  0  0  0  0  0  0  0
    0.1036    1.9166    0.0008 C   0  0  0  0  0  0  0  0  0  0  0  0
   -1.1185    2.5607    0.0010 C   0  0  0  0  0  0  0  0  0  0  0  0
   -2.2895    1.8256    0.0022 C   0  0  0  0  0  0  0  0  0  0  0  0
   -2.2409    0.4429   -0.0031 C   0  0  0  0  0  0  0  0  0  0  0  0
   -3.7130   -0.4772   -0.0023 Cl  0  0  0  0  0  0  0  0  0  0  0  0
    2.5278    1.3468   -0.8902 H   0  0  0  0  0  0  0  0  0  0  0  0
    2.5288    1.3468    0.8898 H   0  0  0  0  0  0  0  0  0  0  0  0
    5.7337   -0.1969   -0.0020 H   0  0  0  0  0  0  0  0  0  0  0  0
    1.0175    2.4920    0.0006 H   0  0  0  0  0  0  0  0  0  0  0  0
   -1.1593    3.6400    0.0006 H   0  0  0  0  0  0  0  0  0  0  0  0
   -3.2437    2.3315    0.0031 H   0  0  0  0  0  0  0  0  0  0  0  0
  1  2  1  0  0  0  0
  2  3  2  0  0  0  0
  3  4  1  0  0  0  0
  4  5  1  0  0  0  0
  5  6  1  0  0  0  0
  6  7  2  0  0  0  0
  6  8  1  0  0  0  0
  3  9  1  0  0  0  0
  9 10  2  0  0  0  0
 10 11  1  0  0  0  0
 11 12  2  0  0  0  0
  2 12  1  0  0  0  0
 12 13  1  0  0  0  0
  5 14  1  0  0  0  0
  5 15  1  0  0  0  0
  8 16  1  0  0  0  0
  9 17  1  0  0  0  0
 10 18  1  0  0  0  0
 11 19  1  0  0  0  0
M  END
$$$$
