C10H6Br2
APtclcactv12151716543D 0   0.00000     0.00000
 
 18 19  0  0  0  0  0  0  0  0999 V2000
   -1.8047    1.6294   -0.0006 Br  0  0  0  0  0  0  0  0  0  0  0  0
   -0.1592    0.6978   -0.0011 C   0  0  0  0  0  0  0  0  0  0  0  0
    1.0083    1.3983    0.0004 C   0  0  0  0  0  0  0  0  0  0  0  0
    2.2331    0.7089    0.0001 C   0  0  0  0  0  0  0  0  0  0  0  0
    3.4577    1.3975    0.0021 C   0  0  0  0  0  0  0  0  0  0  0  0
    4.6247    0.6966    0.0021 C   0  0  0  0  0  0  0  0  0  0  0  0
    4.6247   -0.6967    0.0001 C   0  0  0  0  0  0  0  0  0  0  0  0
    3.4576   -1.3975   -0.0023 C   0  0  0  0  0  0  0  0  0  0  0  0
    2.2331   -0.7087   -0.0019 C   0  0  0  0  0  0  0  0  0  0  0  0
    1.0084   -1.3982   -0.0038 C   0  0  0  0  0  0  0  0  0  0  0  0
   -0.1592   -0.6977    0.0028 C   0  0  0  0  0  0  0  0  0  0  0  0
   -1.8047   -1.6295    0.0008 Br  0  0  0  0  0  0  0  0  0  0  0  0
    0.9933    2.4782    0.0015 H   0  0  0  0  0  0  0  0  0  0  0  0
    3.4732    2.4774    0.0034 H   0  0  0  0  0  0  0  0  0  0  0  0
    5.5646    1.2285    0.0033 H   0  0  0  0  0  0  0  0  0  0  0  0
    5.5646   -1.2287    0.0001 H   0  0  0  0  0  0  0  0  0  0  0  0
    3.4730   -2.4774   -0.0042 H   0  0  0  0  0  0  0  0  0  0  0  0
    0.9934   -2.4781   -0.0059 H   0  0  0  0  0  0  0  0  0  0  0  0
  1  2  1  0  0  0  0
  2  3  2  0  0  0  0
  3  4  1  0  0  0  0
  4  5  2  0  0  0  0
  5  6  1  0  0  0  0
  6  7  2  0  0  0  0
  7  8  1  0  0  0  0
  8  9  2  0  0  0  0
  4  9  1  0  0  0  0
  9 10  1  0  0  0  0
 10 11  2  0  0  0  0
  2 11  1  0  0  0  0
 11 12  1  0  0  0  0
  3 13  1  0  0  0  0
  5 14  1  0  0  0  0
  6 15  1  0  0  0  0
  7 16  1  0  0  0  0
  8 17  1  0  0  0  0
 10 18  1  0  0  0  0
M  END
$$$$
