C6H4Cl2O
APtclcactv12211716493D 0   0.00000     0.00000
 
 13 13  0  0  0  0  0  0  0  0999 V2000
   -0.3082   -1.9946    0.0127 Cl  0  0  0  0  0  0  0  0  0  0  0  0
    0.2395   -0.3473    0.0094 C   0  0  0  0  0  0  0  0  0  0  0  0
    1.5988   -0.0671    0.0144 C   0  0  0  0  0  0  0  0  0  0  0  0
    2.0331    1.2504    0.0118 C   0  0  0  0  0  0  0  0  0  0  0  0
    1.1127    2.2807    0.0044 C   0  0  0  0  0  0  0  0  0  0  0  0
   -0.2412    2.0007   -0.0006 C   0  0  0  0  0  0  0  0  0  0  0  0
   -0.6784    0.6879   -0.0039 C   0  0  0  0  0  0  0  0  0  0  0  0
   -2.3791    0.3397   -0.0107 Cl  0  0  0  0  0  0  0  0  0  0  0  0
    2.5030   -1.0819    0.0222 O   0  0  0  0  0  0  0  0  0  0  0  0
    3.0904    1.4707    0.0161 H   0  0  0  0  0  0  0  0  0  0  0  0
    1.4513    3.3063    0.0027 H   0  0  0  0  0  0  0  0  0  0  0  0
   -0.9587    2.8079   -0.0064 H   0  0  0  0  0  0  0  0  0  0  0  0
    2.7686   -1.3788   -0.8589 H   0  0  0  0  0  0  0  0  0  0  0  0
  1  2  1  0  0  0  0
  2  3  2  0  0  0  0
  3  4  1  0  0  0  0
  4  5  2  0  0  0  0
  5  6  1  0  0  0  0
  6  7  2  0  0  0  0
  2  7  1  0  0  0  0
  7  8  1  0  0  0  0
  3  9  1  0  0  0  0
  4 10  1  0  0  0  0
  5 11  1  0  0  0  0
  6 12  1  0  0  0  0
  9 13  1  0  0  0  0
M  END
$$$$
