C8H18
APtclcactv12151716403D 0   0.00000     0.00000
 
 26 25  0  0  0  0  0  0  0  0999 V2000
    1.6017    1.7648    0.0852 C   0  0  0  0  0  0  0  0  0  0  0  0
    1.5634    0.2960   -0.3412 C   0  0  0  0  0  0  0  0  0  0  0  0
    2.8140   -0.4180    0.1757 C   0  0  0  0  0  0  0  0  0  0  0  0
    0.3168   -0.3721    0.2424 C   0  0  0  0  0  0  0  0  0  0  0  0
   -0.9338    0.3418   -0.2746 C   0  0  0  0  0  0  0  0  0  0  0  0
   -2.1731   -0.2446    0.4044 C   0  0  0  0  0  0  0  0  0  0  0  0
   -3.4237    0.4694   -0.1125 C   0  0  0  0  0  0  0  0  0  0  0  0
    0.2785   -1.8410   -0.1841 C   0  0  0  0  0  0  0  0  0  0  0  0
    2.4898    2.2408   -0.3305 H   0  0  0  0  0  0  0  0  0  0  0  0
    0.7108    2.2735   -0.2830 H   0  0  0  0  0  0  0  0  0  0  0  0
    1.6319    1.8267    1.1731 H   0  0  0  0  0  0  0  0  0  0  0  0
    1.5332    0.2341   -1.4290 H   0  0  0  0  0  0  0  0  0  0  0  0
    2.7867   -1.4644   -0.1281 H   0  0  0  0  0  0  0  0  0  0  0  0
    3.7021    0.0580   -0.2400 H   0  0  0  0  0  0  0  0  0  0  0  0
    2.8441   -0.3561    1.2636 H   0  0  0  0  0  0  0  0  0  0  0  0
    0.3470   -0.3103    1.3302 H   0  0  0  0  0  0  0  0  0  0  0  0
   -0.8645    1.4058   -0.0480 H   0  0  0  0  0  0  0  0  0  0  0  0
   -1.0110    0.2042   -1.3531 H   0  0  0  0  0  0  0  0  0  0  0  0
   -2.2424   -1.3085    0.1779 H   0  0  0  0  0  0  0  0  0  0  0  0
   -2.0959   -0.1070    1.4829 H   0  0  0  0  0  0  0  0  0  0  0  0
   -3.3545    1.5333    0.1140 H   0  0  0  0  0  0  0  0  0  0  0  0
   -3.5010    0.3318   -1.1910 H   0  0  0  0  0  0  0  0  0  0  0  0
   -4.3067    0.0516    0.3712 H   0  0  0  0  0  0  0  0  0  0  0  0
    1.1694   -2.3496    0.1842 H   0  0  0  0  0  0  0  0  0  0  0  0
   -0.6096   -2.3170    0.2317 H   0  0  0  0  0  0  0  0  0  0  0  0
    0.2483   -1.9029   -1.2719 H   0  0  0  0  0  0  0  0  0  0  0  0
  1  2  1  0  0  0  0
  2  3  1  0  0  0  0
  2  4  1  0  0  0  0
  4  5  1  0  0  0  0
  5  6  1  0  0  0  0
  6  7  1  0  0  0  0
  4  8  1  0  0  0  0
  1  9  1  0  0  0  0
  1 10  1  0  0  0  0
  1 11  1  0  0  0  0
  2 12  1  0  0  0  0
  3 13  1  0  0  0  0
  3 14  1  0  0  0  0
  3 15  1  0  0  0  0
  4 16  1  0  0  0  0
  5 17  1  0  0  0  0
  5 18  1  0  0  0  0
  6 19  1  0  0  0  0
  6 20  1  0  0  0  0
  7 21  1  0  0  0  0
  7 22  1  0  0  0  0
  7 23  1  0  0  0  0
  8 24  1  0  0  0  0
  8 25  1  0  0  0  0
  8 26  1  0  0  0  0
M  END
$$$$
