C6H3Cl2NO2
APtclcactv12211716483D 0   0.00000     0.00000
 
 14 14  0  0  0  0  0  0  0  0999 V2000
   -0.1346   -1.8921    0.0015 Cl  0  0  0  0  0  0  0  0  0  0  0  0
   -0.1790   -0.1567    0.0013 C   0  0  0  0  0  0  0  0  0  0  0  0
    1.0005    0.5656    0.0001 C   0  0  0  0  0  0  0  0  0  0  0  0
    0.9647    1.9476    0.0000 C   0  0  0  0  0  0  0  0  0  0  0  0
   -0.2494    2.6083    0.0011 C   0  0  0  0  0  0  0  0  0  0  0  0
   -1.4293    1.8879    0.0028 C   0  0  0  0  0  0  0  0  0  0  0  0
   -1.3954    0.5053   -0.0034 C   0  0  0  0  0  0  0  0  0  0  0  0
   -2.8767   -0.3999   -0.0013 Cl  0  0  0  0  0  0  0  0  0  0  0  0
    2.3011   -0.1410   -0.0006 N   0  3  0  0  0  0  0  0  0  0  0  0
    3.3398    0.4951   -0.0017 O   0  0  0  0  0  0  0  0  0  0  0  0
    2.3326   -1.3586   -0.0001 O   0  5  0  0  0  0  0  0  0  0  0  0
    1.8859    2.5114   -0.0006 H   0  0  0  0  0  0  0  0  0  0  0  0
   -0.2763    3.6880    0.0011 H   0  0  0  0  0  0  0  0  0  0  0  0
   -2.3776    2.4048    0.0044 H   0  0  0  0  0  0  0  0  0  0  0  0
  1  2  1  0  0  0  0
  2  3  2  0  0  0  0
  3  4  1  0  0  0  0
  4  5  2  0  0  0  0
  5  6  1  0  0  0  0
  6  7  2  0  0  0  0
  2  7  1  0  0  0  0
  7  8  1  0  0  0  0
  3  9  1  0  0  0  0
  9 10  2  0  0  0  0
  9 11  1  0  0  0  0
  4 12  1  0  0  0  0
  5 13  1  0  0  0  0
  6 14  1  0  0  0  0
M  CHG  2   9   1  11  -1
M  END
$$$$
