C9H10
APtclcactv12151716443D 0   0.00000     0.00000
 
 19 20  0  0  0  0  0  0  0  0999 V2000
   -1.6036    1.2029   -0.1280 C   0  0  0  0  0  0  0  0  0  0  0  0
   -2.4847    0.0000    0.2710 C   0  0  0  0  0  0  0  0  0  0  0  0
   -1.6037   -1.2029   -0.1280 C   0  0  0  0  0  0  0  0  0  0  0  0
   -0.1806   -0.6913   -0.0604 C   0  0  0  0  0  0  0  0  0  0  0  0
    1.0189   -1.3804   -0.0039 C   0  0  0  0  0  0  0  0  0  0  0  0
    2.2147   -0.6910    0.0524 C   0  0  0  0  0  0  0  0  0  0  0  0
    2.2147    0.6911    0.0524 C   0  0  0  0  0  0  0  0  0  0  0  0
    1.0189    1.3804   -0.0039 C   0  0  0  0  0  0  0  0  0  0  0  0
   -0.1806    0.6913   -0.0604 C   0  0  0  0  0  0  0  0  0  0  0  0
   -1.8416    1.5263   -1.1414 H   0  0  0  0  0  0  0  0  0  0  0  0
   -1.7441    2.0241    0.5748 H   0  0  0  0  0  0  0  0  0  0  0  0
   -2.6776    0.0000    1.3438 H   0  0  0  0  0  0  0  0  0  0  0  0
   -3.4182    0.0000   -0.2917 H   0  0  0  0  0  0  0  0  0  0  0  0
   -1.7441   -2.0241    0.5748 H   0  0  0  0  0  0  0  0  0  0  0  0
   -1.8416   -1.5263   -1.1413 H   0  0  0  0  0  0  0  0  0  0  0  0
    1.0197   -2.4604   -0.0036 H   0  0  0  0  0  0  0  0  0  0  0  0
    3.1486   -1.2316    0.0968 H   0  0  0  0  0  0  0  0  0  0  0  0
    3.1486    1.2316    0.0968 H   0  0  0  0  0  0  0  0  0  0  0  0
    1.0196    2.4604   -0.0035 H   0  0  0  0  0  0  0  0  0  0  0  0
  1  2  1  0  0  0  0
  2  3  1  0  0  0  0
  3  4  1  0  0  0  0
  4  5  2  0  0  0  0
  5  6  1  0  0  0  0
  6  7  2  0  0  0  0
  7  8  1  0  0  0  0
  8  9  2  0  0  0  0
  1  9  1  0  0  0  0
  4  9  1  0  0  0  0
  1 10  1  0  0  0  0
  1 11  1  0  0  0  0
  2 12  1  0  0  0  0
  2 13  1  0  0  0  0
  3 14  1  0  0  0  0
  3 15  1  0  0  0  0
  5 16  1  0  0  0  0
  6 17  1  0  0  0  0
  7 18  1  0  0  0  0
  8 19  1  0  0  0  0
M  END
$$$$
