C7H5N3O7
APtclcactv12151716143D 0   0.00000     0.00000
 
 22 22  0  0  0  0  0  0  0  0999 V2000
   -0.0787    2.6860   -0.0540 N   0  3  0  0  0  0  0  0  0  0  0  0
   -0.1040    3.2749   -1.1199 O   0  0  0  0  0  0  0  0  0  0  0  0
   -0.0983    3.3141    0.9894 O   0  5  0  0  0  0  0  0  0  0  0  0
   -0.0302    1.2068   -0.0266 C   0  0  0  0  0  0  0  0  0  0  0  0
    1.1876    0.5552   -0.0207 C   0  0  0  0  0  0  0  0  0  0  0  0
    1.2336   -0.8267    0.0049 C   0  0  0  0  0  0  0  0  0  0  0  0
    0.0614   -1.5594    0.0246 C   0  0  0  0  0  0  0  0  0  0  0  0
   -1.1593   -0.9123    0.0192 C   0  0  0  0  0  0  0  0  0  0  0  0
   -1.2080    0.4739   -0.0011 C   0  0  0  0  0  0  0  0  0  0  0  0
   -2.4075    1.1127   -0.0064 O   0  0  0  0  0  0  0  0  0  0  0  0
   -2.4140   -1.6974    0.0399 N   0  3  0  0  0  0  0  0  0  0  0  0
   -2.3705   -2.9144    0.0617 O   0  0  0  0  0  0  0  0  0  0  0  0
   -3.4898   -1.1264    0.0352 O   0  5  0  0  0  0  0  0  0  0  0  0
    2.5400   -1.5226    0.0107 N   0  3  0  0  0  0  0  0  0  0  0  0
    2.6771   -2.5658   -0.6028 O   0  0  0  0  0  0  0  0  0  0  0  0
    3.4780   -1.0519    0.6289 O   0  5  0  0  0  0  0  0  0  0  0  0
    2.4673    1.3507   -0.0427 C   0  0  0  0  0  0  0  0  0  0  0  0
    0.0999   -2.6385    0.0438 H   0  0  0  0  0  0  0  0  0  0  0  0
   -2.7516    1.3107    0.8753 H   0  0  0  0  0  0  0  0  0  0  0  0
    2.8348    1.4759    0.9759 H   0  0  0  0  0  0  0  0  0  0  0  0
    3.2136    0.8222   -0.6358 H   0  0  0  0  0  0  0  0  0  0  0  0
    2.2792    2.3295   -0.4839 H   0  0  0  0  0  0  0  0  0  0  0  0
  1  2  2  0  0  0  0
  1  3  1  0  0  0  0
  1  4  1  0  0  0  0
  4  5  2  0  0  0  0
  5  6  1  0  0  0  0
  6  7  2  0  0  0  0
  7  8  1  0  0  0  0
  8  9  2  0  0  0  0
  4  9  1  0  0  0  0
  9 10  1  0  0  0  0
  8 11  1  0  0  0  0
 11 12  2  0  0  0  0
 11 13  1  0  0  0  0
  6 14  1  0  0  0  0
 14 15  2  0  0  0  0
 14 16  1  0  0  0  0
  5 17  1  0  0  0  0
  7 18  1  0  0  0  0
 10 19  1  0  0  0  0
 17 20  1  0  0  0  0
 17 21  1  0  0  0  0
 17 22  1  0  0  0  0
M  CHG  6   1   1   3  -1  11   1  13  -1  14   1  16  -1
M  END
$$$$
