C12H7Cl3
APtclcactv12111704543D 0   0.00000     0.00000
 
 22 23  0  0  0  0  0  0  0  0999 V2000
    0.2779   -2.7077   -0.1662 Cl  0  0  0  0  0  0  0  0  0  0  0  0
   -0.5849   -1.2041   -0.0740 C   0  0  0  0  0  0  0  0  0  0  0  0
    0.1152   -0.0004   -0.0004 C   0  0  0  0  0  0  0  0  0  0  0  0
   -0.5843    1.2037    0.0736 C   0  0  0  0  0  0  0  0  0  0  0  0
   -1.9655    1.1981    0.0736 C   0  0  0  0  0  0  0  0  0  0  0  0
   -2.6554    0.0003    0.0004 C   0  0  0  0  0  0  0  0  0  0  0  0
   -1.9661   -1.1976   -0.0790 C   0  0  0  0  0  0  0  0  0  0  0  0
   -4.3914    0.0007    0.0014 Cl  0  0  0  0  0  0  0  0  0  0  0  0
    0.2793    2.7068    0.1660 Cl  0  0  0  0  0  0  0  0  0  0  0  0
    1.5987   -0.0008   -0.0003 C   0  0  0  0  0  0  0  0  0  0  0  0
    2.2983    0.5741   -1.0596 C   0  0  0  0  0  0  0  0  0  0  0  0
    3.6784    0.5713   -1.0541 C   0  0  0  0  0  0  0  0  0  0  0  0
    4.3672   -0.0007    0.0003 C   0  0  0  0  0  0  0  0  0  0  0  0
    3.6780   -0.5727    1.0544 C   0  0  0  0  0  0  0  0  0  0  0  0
    2.2978   -0.5709    1.0618 C   0  0  0  0  0  0  0  0  0  0  0  0
   -2.5083    2.1301    0.1312 H   0  0  0  0  0  0  0  0  0  0  0  0
   -2.5093   -2.1292   -0.1363 H   0  0  0  0  0  0  0  0  0  0  0  0
    1.7614    1.0206   -1.8835 H   0  0  0  0  0  0  0  0  0  0  0  0
    4.2216    1.0162   -1.8747 H   0  0  0  0  0  0  0  0  0  0  0  0
    5.4472   -0.0009    0.0004 H   0  0  0  0  0  0  0  0  0  0  0  0
    4.2208   -1.0179    1.8751 H   0  0  0  0  0  0  0  0  0  0  0  0
    1.7607   -1.0175    1.8855 H   0  0  0  0  0  0  0  0  0  0  0  0
  1  2  1  0  0  0  0
  2  3  2  0  0  0  0
  3  4  1  0  0  0  0
  4  5  2  0  0  0  0
  5  6  1  0  0  0  0
  6  7  2  0  0  0  0
  2  7  1  0  0  0  0
  6  8  1  0  0  0  0
  4  9  1  0  0  0  0
  3 10  1  0  0  0  0
 10 11  2  0  0  0  0
 11 12  1  0  0  0  0
 12 13  2  0  0  0  0
 13 14  1  0  0  0  0
 14 15  2  0  0  0  0
 10 15  1  0  0  0  0
  5 16  1  0  0  0  0
  7 17  1  0  0  0  0
 11 18  1  0  0  0  0
 12 19  1  0  0  0  0
 13 20  1  0  0  0  0
 14 21  1  0  0  0  0
 15 22  1  0  0  0  0
M  END
$$$$
