C4H4N2O3
APtclcactv12211716373D 0   0.00000     0.00000
 
 13 13  0  0  0  0  0  0  0  0999 V2000
    0.0006    2.6633    0.0489 O   0  0  0  0  0  0  0  0  0  0  0  0
    0.0003    1.3091    0.0200 C   0  0  0  0  0  0  0  0  0  0  0  0
    1.1556    0.6650    0.0069 N   0  0  0  0  0  0  0  0  0  0  0  0
    1.1941   -0.6634   -0.0210 C   0  0  0  0  0  0  0  0  0  0  0  0
   -0.0003   -1.3746   -0.0363 C   0  0  0  0  0  0  0  0  0  0  0  0
   -1.1944   -0.6629   -0.0217 C   0  0  0  0  0  0  0  0  0  0  0  0
   -1.1553    0.6654    0.0112 N   0  0  0  0  0  0  0  0  0  0  0  0
   -2.3826   -1.3148   -0.0362 O   0  0  0  0  0  0  0  0  0  0  0  0
    2.3820   -1.3158   -0.0348 O   0  0  0  0  0  0  0  0  0  0  0  0
    0.0011    3.0754   -0.8259 H   0  0  0  0  0  0  0  0  0  0  0  0
   -0.0005   -2.4544   -0.0593 H   0  0  0  0  0  0  0  0  0  0  0  0
   -2.7278   -1.5228    0.8427 H   0  0  0  0  0  0  0  0  0  0  0  0
    2.7268   -1.5237    0.8444 H   0  0  0  0  0  0  0  0  0  0  0  0
  1  2  1  0  0  0  0
  2  3  2  0  0  0  0
  3  4  1  0  0  0  0
  4  5  2  0  0  0  0
  5  6  1  0  0  0  0
  6  7  2  0  0  0  0
  2  7  1  0  0  0  0
  6  8  1  0  0  0  0
  4  9  1  0  0  0  0
  1 10  1  0  0  0  0
  5 11  1  0  0  0  0
  8 12  1  0  0  0  0
  9 13  1  0  0  0  0
M  END
$$$$
