C12H6Cl4
APtclcactv12111704533D 0   0.00000     0.00000
 
 22 23  0  0  0  0  0  0  0  0999 V2000
   -0.4437   -2.7074   -0.1664 Cl  0  0  0  0  0  0  0  0  0  0  0  0
   -1.3069   -1.2040   -0.0740 C   0  0  0  0  0  0  0  0  0  0  0  0
   -0.6071   -0.0001   -0.0003 C   0  0  0  0  0  0  0  0  0  0  0  0
   -1.3068    1.2038    0.0737 C   0  0  0  0  0  0  0  0  0  0  0  0
   -2.6880    1.1979    0.0737 C   0  0  0  0  0  0  0  0  0  0  0  0
   -3.3776   -0.0001    0.0003 C   0  0  0  0  0  0  0  0  0  0  0  0
   -2.6881   -1.1978   -0.0791 C   0  0  0  0  0  0  0  0  0  0  0  0
   -5.1136   -0.0001    0.0013 Cl  0  0  0  0  0  0  0  0  0  0  0  0
   -0.4436    2.7071    0.1663 Cl  0  0  0  0  0  0  0  0  0  0  0  0
    0.8765   -0.0002   -0.0002 C   0  0  0  0  0  0  0  0  0  0  0  0
    1.5757    0.5750   -1.0596 C   0  0  0  0  0  0  0  0  0  0  0  0
    2.9556    0.5724   -1.0549 C   0  0  0  0  0  0  0  0  0  0  0  0
    3.6454   -0.0004    0.0000 C   0  0  0  0  0  0  0  0  0  0  0  0
    2.9554   -0.5734    1.0545 C   0  0  0  0  0  0  0  0  0  0  0  0
    1.5754   -0.5704    1.0621 C   0  0  0  0  0  0  0  0  0  0  0  0
    5.3814   -0.0005    0.0001 Cl  0  0  0  0  0  0  0  0  0  0  0  0
   -3.2310    2.1297    0.1313 H   0  0  0  0  0  0  0  0  0  0  0  0
   -3.2311   -2.1296   -0.1361 H   0  0  0  0  0  0  0  0  0  0  0  0
    1.0385    1.0218   -1.8831 H   0  0  0  0  0  0  0  0  0  0  0  0
    3.4984    1.0176   -1.8756 H   0  0  0  0  0  0  0  0  0  0  0  0
    3.4980   -1.0193    1.8750 H   0  0  0  0  0  0  0  0  0  0  0  0
    1.0380   -1.0174    1.8854 H   0  0  0  0  0  0  0  0  0  0  0  0
  1  2  1  0  0  0  0
  2  3  2  0  0  0  0
  3  4  1  0  0  0  0
  4  5  2  0  0  0  0
  5  6  1  0  0  0  0
  6  7  2  0  0  0  0
  2  7  1  0  0  0  0
  6  8  1  0  0  0  0
  4  9  1  0  0  0  0
  3 10  1  0  0  0  0
 10 11  2  0  0  0  0
 11 12  1  0  0  0  0
 12 13  2  0  0  0  0
 13 14  1  0  0  0  0
 14 15  2  0  0  0  0
 10 15  1  0  0  0  0
 13 16  1  0  0  0  0
  5 17  1  0  0  0  0
  7 18  1  0  0  0  0
 11 19  1  0  0  0  0
 12 20  1  0  0  0  0
 14 21  1  0  0  0  0
 15 22  1  0  0  0  0
M  END
$$$$
