C8H7Cl3O
APtclcactv12151716263D 0   0.00000     0.00000
 
 19 19  0  0  0  0  0  0  0  0999 V2000
   -2.7076    1.5435   -0.0105 Cl  0  0  0  0  0  0  0  0  0  0  0  0
   -1.2020    0.6791   -0.0073 C   0  0  0  0  0  0  0  0  0  0  0  0
   -0.0015    1.3754   -0.0092 C   0  0  0  0  0  0  0  0  0  0  0  0
    1.2005    0.6818   -0.0061 C   0  0  0  0  0  0  0  0  0  0  0  0
    1.1996   -0.7008   -0.0013 C   0  0  0  0  0  0  0  0  0  0  0  0
    0.0016   -1.3929    0.0000 C   0  0  0  0  0  0  0  0  0  0  0  0
   -1.1980   -0.7035    0.0028 C   0  0  0  0  0  0  0  0  0  0  0  0
   -2.5013   -1.4601    0.0047 C   0  0  0  0  0  0  0  0  0  0  0  0
    0.0035   -3.1288    0.0055 Cl  0  0  0  0  0  0  0  0  0  0  0  0
    2.5046   -1.4545    0.0020 C   0  0  0  0  0  0  0  0  0  0  0  0
    2.7041    1.5496   -0.0090 Cl  0  0  0  0  0  0  0  0  0  0  0  0
   -0.0031    2.7351   -0.0144 O   0  0  0  0  0  0  0  0  0  0  0  0
   -2.8136   -1.6433    1.0329 H   0  0  0  0  0  0  0  0  0  0  0  0
   -3.2633   -0.8725   -0.5073 H   0  0  0  0  0  0  0  0  0  0  0  0
   -2.3696   -2.4119   -0.5100 H   0  0  0  0  0  0  0  0  0  0  0  0
    2.8187   -1.6327    1.0304 H   0  0  0  0  0  0  0  0  0  0  0  0
    2.3743   -2.4087   -0.5086 H   0  0  0  0  0  0  0  0  0  0  0  0
    3.2646   -0.8674   -0.5135 H   0  0  0  0  0  0  0  0  0  0  0  0
   -0.0041    3.1318    0.8675 H   0  0  0  0  0  0  0  0  0  0  0  0
  1  2  1  0  0  0  0
  2  3  2  0  0  0  0
  3  4  1  0  0  0  0
  4  5  2  0  0  0  0
  5  6  1  0  0  0  0
  6  7  2  0  0  0  0
  2  7  1  0  0  0  0
  7  8  1  0  0  0  0
  6  9  1  0  0  0  0
  5 10  1  0  0  0  0
  4 11  1  0  0  0  0
  3 12  1  0  0  0  0
  8 13  1  0  0  0  0
  8 14  1  0  0  0  0
  8 15  1  0  0  0  0
 10 16  1  0  0  0  0
 10 17  1  0  0  0  0
 10 18  1  0  0  0  0
 12 19  1  0  0  0  0
M  END
$$$$
