C6H3Br3O
APtclcactv12211716483D 0   0.00000     0.00000
 
 13 13  0  0  0  0  0  0  0  0999 V2000
    1.5004   -2.8401    0.0058 Br  0  0  0  0  0  0  0  0  0  0  0  0
    0.5571   -1.2012    0.0037 C   0  0  0  0  0  0  0  0  0  0  0  0
    1.2520    0.0000    0.0048 C   0  0  0  0  0  0  0  0  0  0  0  0
    0.5571    1.2012    0.0033 C   0  0  0  0  0  0  0  0  0  0  0  0
   -0.8253    1.1987    0.0007 C   0  0  0  0  0  0  0  0  0  0  0  0
   -1.5159   -0.0000    0.0000 C   0  0  0  0  0  0  0  0  0  0  0  0
   -0.8252   -1.1987   -0.0047 C   0  0  0  0  0  0  0  0  0  0  0  0
   -3.4069   -0.0000   -0.0029 Br  0  0  0  0  0  0  0  0  0  0  0  0
    1.5003    2.8401    0.0055 Br  0  0  0  0  0  0  0  0  0  0  0  0
    2.6115    0.0000    0.0079 O   0  0  0  0  0  0  0  0  0  0  0  0
   -1.3666    2.1332   -0.0005 H   0  0  0  0  0  0  0  0  0  0  0  0
   -1.3665   -2.1333   -0.0056 H   0  0  0  0  0  0  0  0  0  0  0  0
    3.0068   -0.0003   -0.8747 H   0  0  0  0  0  0  0  0  0  0  0  0
  1  2  1  0  0  0  0
  2  3  2  0  0  0  0
  3  4  1  0  0  0  0
  4  5  2  0  0  0  0
  5  6  1  0  0  0  0
  6  7  2  0  0  0  0
  2  7  1  0  0  0  0
  6  8  1  0  0  0  0
  4  9  1  0  0  0  0
  3 10  1  0  0  0  0
  5 11  1  0  0  0  0
  7 12  1  0  0  0  0
 10 13  1  0  0  0  0
M  END
$$$$
