C8H5Cl3O3
APtclcactv12151716243D 0   0.00000     0.00000
 
 19 19  0  0  0  0  0  0  0  0999 V2000
    0.7327   -2.9578    0.0004 Cl  0  0  0  0  0  0  0  0  0  0  0  0
   -0.1573   -1.4673    0.0006 C   0  0  0  0  0  0  0  0  0  0  0  0
    0.5185   -0.2549    0.0006 C   0  0  0  0  0  0  0  0  0  0  0  0
    1.8778   -0.2335    0.0003 O   0  0  0  0  0  0  0  0  0  0  0  0
    2.5064    1.0498    0.0002 C   0  0  0  0  0  0  0  0  0  0  0  0
    4.0033    0.8759   -0.0000 C   0  0  0  0  0  0  0  0  0  0  0  0
    4.4827   -0.2331   -0.0001 O   0  0  0  0  0  0  0  0  0  0  0  0
    4.8041    1.9532   -0.0001 O   0  0  0  0  0  0  0  0  0  0  0  0
   -0.1946    0.9345    0.0002 C   0  0  0  0  0  0  0  0  0  0  0  0
   -1.5769    0.9107    0.0000 C   0  0  0  0  0  0  0  0  0  0  0  0
   -2.2495   -0.2999    0.0006 C   0  0  0  0  0  0  0  0  0  0  0  0
   -1.5398   -1.4872   -0.0049 C   0  0  0  0  0  0  0  0  0  0  0  0
   -3.9852   -0.3274    0.0009 Cl  0  0  0  0  0  0  0  0  0  0  0  0
   -2.4702    2.3993   -0.0004 Cl  0  0  0  0  0  0  0  0  0  0  0  0
    2.2046    1.6022   -0.8897 H   0  0  0  0  0  0  0  0  0  0  0  0
    2.2049    1.6021    0.8903 H   0  0  0  0  0  0  0  0  0  0  0  0
    5.7575    1.7915   -0.0003 H   0  0  0  0  0  0  0  0  0  0  0  0
    0.3296    1.8788    0.0005 H   0  0  0  0  0  0  0  0  0  0  0  0
   -2.0659   -2.4304   -0.0048 H   0  0  0  0  0  0  0  0  0  0  0  0
  1  2  1  0  0  0  0
  2  3  2  0  0  0  0
  3  4  1  0  0  0  0
  4  5  1  0  0  0  0
  5  6  1  0  0  0  0
  6  7  2  0  0  0  0
  6  8  1  0  0  0  0
  3  9  1  0  0  0  0
  9 10  2  0  0  0  0
 10 11  1  0  0  0  0
 11 12  2  0  0  0  0
  2 12  1  0  0  0  0
 11 13  1  0  0  0  0
 10 14  1  0  0  0  0
  5 15  1  0  0  0  0
  5 16  1  0  0  0  0
  8 17  1  0  0  0  0
  9 18  1  0  0  0  0
 12 19  1  0  0  0  0
M  END
$$$$
