C7H5N3O6
APtclcactv12151716143D 0   0.00000     0.00000
 
 21 21  0  0  0  0  0  0  0  0999 V2000
    1.2456   -2.4793    0.0111 N   0  3  0  0  0  0  0  0  0  0  0  0
    0.6416   -3.5304    0.1291 O   0  0  0  0  0  0  0  0  0  0  0  0
    2.4578   -2.4834   -0.1069 O   0  5  0  0  0  0  0  0  0  0  0  0
    0.5058   -1.1972    0.0051 C   0  0  0  0  0  0  0  0  0  0  0  0
    1.1972   -0.0002    0.0091 C   0  0  0  0  0  0  0  0  0  0  0  0
    0.5063    1.1971    0.0035 C   0  0  0  0  0  0  0  0  0  0  0  0
   -0.8760    1.1974   -0.0066 C   0  0  0  0  0  0  0  0  0  0  0  0
   -1.5674    0.0004   -0.0116 C   0  0  0  0  0  0  0  0  0  0  0  0
   -0.8765   -1.1969   -0.0103 C   0  0  0  0  0  0  0  0  0  0  0  0
   -3.0476    0.0007   -0.0220 N   0  3  0  0  0  0  0  0  0  0  0  0
   -3.6563    1.0556   -0.0261 O   0  0  0  0  0  0  0  0  0  0  0  0
   -3.6568   -1.0540   -0.0264 O   0  5  0  0  0  0  0  0  0  0  0  0
    1.2467    2.4788    0.0089 N   0  3  0  0  0  0  0  0  0  0  0  0
    0.6436    3.5299    0.1315 O   0  0  0  0  0  0  0  0  0  0  0  0
    2.4589    2.4824   -0.1094 O   0  5  0  0  0  0  0  0  0  0  0  0
    2.7042   -0.0006    0.0202 C   0  0  0  0  0  0  0  0  0  0  0  0
   -1.4158    2.1328   -0.0103 H   0  0  0  0  0  0  0  0  0  0  0  0
   -1.4167   -2.1321   -0.0143 H   0  0  0  0  0  0  0  0  0  0  0  0
    3.0750   -0.0001   -1.0048 H   0  0  0  0  0  0  0  0  0  0  0  0
    3.0639    0.8891    0.5372 H   0  0  0  0  0  0  0  0  0  0  0  0
    3.0635   -0.8909    0.5362 H   0  0  0  0  0  0  0  0  0  0  0  0
  1  2  2  0  0  0  0
  1  3  1  0  0  0  0
  1  4  1  0  0  0  0
  4  5  2  0  0  0  0
  5  6  1  0  0  0  0
  6  7  2  0  0  0  0
  7  8  1  0  0  0  0
  8  9  2  0  0  0  0
  4  9  1  0  0  0  0
  8 10  1  0  0  0  0
 10 11  2  0  0  0  0
 10 12  1  0  0  0  0
  6 13  1  0  0  0  0
 13 14  2  0  0  0  0
 13 15  1  0  0  0  0
  5 16  1  0  0  0  0
  7 17  1  0  0  0  0
  9 18  1  0  0  0  0
 16 19  1  0  0  0  0
 16 20  1  0  0  0  0
 16 21  1  0  0  0  0
M  CHG  6   1   1   3  -1  10   1  12  -1  13   1  15  -1
M  END
$$$$
