C6H8N8
APtclcactv12211716553D 0   0.00000     0.00000
 
 22 23  0  0  0  0  0  0  0  0999 V2000
    3.7057    1.3875    0.0005 N   0  0  0  0  0  0  0  0  0  0  0  0
    2.4952    0.7182    0.0007 C   0  0  0  0  0  0  0  0  0  0  0  0
    1.3807    1.4252    0.0009 N   0  0  0  0  0  0  0  0  0  0  0  0
    0.1873    0.8152    0.0007 C   0  0  0  0  0  0  0  0  0  0  0  0
   -0.9536    1.5124    0.0003 N   0  0  0  0  0  0  0  0  0  0  0  0
   -2.1097    0.8748   -0.0003 C   0  0  0  0  0  0  0  0  0  0  0  0
   -2.1480   -0.5383   -0.0001 C   0  0  0  0  0  0  0  0  0  0  0  0
   -1.0293   -1.2347    0.0006 N   0  0  0  0  0  0  0  0  0  0  0  0
    0.1455   -0.5986    0.0003 C   0  0  0  0  0  0  0  0  0  0  0  0
    1.3728   -1.3058    0.0005 C   0  0  0  0  0  0  0  0  0  0  0  0
    2.5013   -0.6111   -0.0048 N   0  0  0  0  0  0  0  0  0  0  0  0
    1.3928   -2.6856    0.0014 N   0  0  0  0  0  0  0  0  0  0  0  0
   -3.3722   -1.1967   -0.0002 N   0  0  0  0  0  0  0  0  0  0  0  0
   -3.2924    1.5949   -0.0006 N   0  0  0  0  0  0  0  0  0  0  0  0
    3.7237    2.3573    0.0005 H   0  0  0  0  0  0  0  0  0  0  0  0
    4.5366    0.8870    0.0044 H   0  0  0  0  0  0  0  0  0  0  0  0
    0.5599   -3.1827    0.0019 H   0  0  0  0  0  0  0  0  0  0  0  0
    2.2398   -3.1584    0.0015 H   0  0  0  0  0  0  0  0  0  0  0  0
   -4.1973   -0.6866   -0.0004 H   0  0  0  0  0  0  0  0  0  0  0  0
   -3.4015   -2.1663   -0.0001 H   0  0  0  0  0  0  0  0  0  0  0  0
   -3.2698    2.5646   -0.0004 H   0  0  0  0  0  0  0  0  0  0  0  0
   -4.1435    1.1296   -0.0010 H   0  0  0  0  0  0  0  0  0  0  0  0
  1  2  1  0  0  0  0
  2  3  2  0  0  0  0
  3  4  1  0  0  0  0
  4  5  2  0  0  0  0
  5  6  1  0  0  0  0
  6  7  2  0  0  0  0
  7  8  1  0  0  0  0
  8  9  2  0  0  0  0
  4  9  1  0  0  0  0
  9 10  1  0  0  0  0
 10 11  2  0  0  0  0
  2 11  1  0  0  0  0
 10 12  1  0  0  0  0
  7 13  1  0  0  0  0
  6 14  1  0  0  0  0
  1 15  1  0  0  0  0
  1 16  1  0  0  0  0
 12 17  1  0  0  0  0
 12 18  1  0  0  0  0
 13 19  1  0  0  0  0
 13 20  1  0  0  0  0
 14 21  1  0  0  0  0
 14 22  1  0  0  0  0
M  END
$$$$
