C12H7Br3
APtclcactv12211716483D 0   0.00000     0.00000
 
 22 23  0  0  0  0  0  0  0  0999 V2000
    0.7912   -2.8461   -0.0726 Br  0  0  0  0  0  0  0  0  0  0  0  0
   -0.1488   -1.2057   -0.0311 C   0  0  0  0  0  0  0  0  0  0  0  0
    0.5512   -0.0003   -0.0006 C   0  0  0  0  0  0  0  0  0  0  0  0
   -0.1483    1.2054    0.0299 C   0  0  0  0  0  0  0  0  0  0  0  0
   -1.5292    1.1998    0.0297 C   0  0  0  0  0  0  0  0  0  0  0  0
   -2.2189    0.0003   -0.0002 C   0  0  0  0  0  0  0  0  0  0  0  0
   -1.5297   -1.1994   -0.0368 C   0  0  0  0  0  0  0  0  0  0  0  0
   -4.1099    0.0006    0.0010 Br  0  0  0  0  0  0  0  0  0  0  0  0
    0.7924    2.8453    0.0721 Br  0  0  0  0  0  0  0  0  0  0  0  0
    2.0348   -0.0006   -0.0001 C   0  0  0  0  0  0  0  0  0  0  0  0
    2.7346    0.5359   -1.0791 C   0  0  0  0  0  0  0  0  0  0  0  0
    4.1147    0.5334   -1.0731 C   0  0  0  0  0  0  0  0  0  0  0  0
    4.8033   -0.0008    0.0011 C   0  0  0  0  0  0  0  0  0  0  0  0
    4.1137   -0.5351    1.0746 C   0  0  0  0  0  0  0  0  0  0  0  0
    2.7336   -0.5322    1.0820 C   0  0  0  0  0  0  0  0  0  0  0  0
   -2.0720    2.1332    0.0534 H   0  0  0  0  0  0  0  0  0  0  0  0
   -2.0729   -2.1326   -0.0600 H   0  0  0  0  0  0  0  0  0  0  0  0
    2.1980    0.9526   -1.9186 H   0  0  0  0  0  0  0  0  0  0  0  0
    4.6581    0.9489   -1.9088 H   0  0  0  0  0  0  0  0  0  0  0  0
    5.8833   -0.0010    0.0015 H   0  0  0  0  0  0  0  0  0  0  0  0
    4.6564   -0.9515    1.9104 H   0  0  0  0  0  0  0  0  0  0  0  0
    2.1962   -0.9493    1.9208 H   0  0  0  0  0  0  0  0  0  0  0  0
  1  2  1  0  0  0  0
  2  3  2  0  0  0  0
  3  4  1  0  0  0  0
  4  5  2  0  0  0  0
  5  6  1  0  0  0  0
  6  7  2  0  0  0  0
  2  7  1  0  0  0  0
  6  8  1  0  0  0  0
  4  9  1  0  0  0  0
  3 10  1  0  0  0  0
 10 11  2  0  0  0  0
 11 12  1  0  0  0  0
 12 13  2  0  0  0  0
 13 14  1  0  0  0  0
 14 15  2  0  0  0  0
 10 15  1  0  0  0  0
  5 16  1  0  0  0  0
  7 17  1  0  0  0  0
 11 18  1  0  0  0  0
 12 19  1  0  0  0  0
 13 20  1  0  0  0  0
 14 21  1  0  0  0  0
 15 22  1  0  0  0  0
M  END
$$$$
