C12H6Cl4
APtclcactv12111704533D 0   0.00000     0.00000
 
 22 23  0  0  0  0  0  0  0  0999 V2000
    0.2303   -2.6939   -0.2093 Cl  0  0  0  0  0  0  0  0  0  0  0  0
   -0.7964   -1.2983   -0.0996 C   0  0  0  0  0  0  0  0  0  0  0  0
   -0.2362   -0.0252   -0.0021 C   0  0  0  0  0  0  0  0  0  0  0  0
   -1.0656    1.0911    0.0857 C   0  0  0  0  0  0  0  0  0  0  0  0
   -2.4372    0.9317    0.0758 C   0  0  0  0  0  0  0  0  0  0  0  0
   -2.9891   -0.3357   -0.0213 C   0  0  0  0  0  0  0  0  0  0  0  0
   -2.1697   -1.4469   -0.1145 C   0  0  0  0  0  0  0  0  0  0  0  0
   -4.7142   -0.5295   -0.0327 Cl  0  0  0  0  0  0  0  0  0  0  0  0
   -3.4719    2.3213    0.1857 Cl  0  0  0  0  0  0  0  0  0  0  0  0
    1.2382    0.1405    0.0086 C   0  0  0  0  0  0  0  0  0  0  0  0
    1.8449    1.0573   -0.8477 C   0  0  0  0  0  0  0  0  0  0  0  0
    3.2165    1.2080   -0.8336 C   0  0  0  0  0  0  0  0  0  0  0  0
    3.9896    0.4499    0.0290 C   0  0  0  0  0  0  0  0  0  0  0  0
    3.3916   -0.4623    0.8816 C   0  0  0  0  0  0  0  0  0  0  0  0
    2.0203   -0.6162    0.8791 C   0  0  0  0  0  0  0  0  0  0  0  0
    5.7148    0.6433    0.0411 Cl  0  0  0  0  0  0  0  0  0  0  0  0
   -0.6365    2.0793    0.1617 H   0  0  0  0  0  0  0  0  0  0  0  0
   -2.6046   -2.4325   -0.1903 H   0  0  0  0  0  0  0  0  0  0  0  0
    1.2426    1.6487   -1.5215 H   0  0  0  0  0  0  0  0  0  0  0  0
    3.6876    1.9183   -1.4969 H   0  0  0  0  0  0  0  0  0  0  0  0
    3.9991   -1.0517    1.5524 H   0  0  0  0  0  0  0  0  0  0  0  0
    1.5547   -1.3280    1.5446 H   0  0  0  0  0  0  0  0  0  0  0  0
  1  2  1  0  0  0  0
  2  3  2  0  0  0  0
  3  4  1  0  0  0  0
  4  5  2  0  0  0  0
  5  6  1  0  0  0  0
  6  7  2  0  0  0  0
  2  7  1  0  0  0  0
  6  8  1  0  0  0  0
  5  9  1  0  0  0  0
  3 10  1  0  0  0  0
 10 11  2  0  0  0  0
 11 12  1  0  0  0  0
 12 13  2  0  0  0  0
 13 14  1  0  0  0  0
 14 15  2  0  0  0  0
 10 15  1  0  0  0  0
 13 16  1  0  0  0  0
  4 17  1  0  0  0  0
  7 18  1  0  0  0  0
 11 19  1  0  0  0  0
 12 20  1  0  0  0  0
 14 21  1  0  0  0  0
 15 22  1  0  0  0  0
M  END
$$$$
