C7H4Cl4O
APtclcactv12151716123D 0   0.00000     0.00000
 
 16 16  0  0  0  0  0  0  0  0999 V2000
   -3.3853   -0.0037   -0.0103 Cl  0  0  0  0  0  0  0  0  0  0  0  0
   -1.6493   -0.0060   -0.0074 C   0  0  0  0  0  0  0  0  0  0  0  0
   -0.9536    1.1947   -0.0092 C   0  0  0  0  0  0  0  0  0  0  0  0
    0.4342    1.1904   -0.0064 C   0  0  0  0  0  0  0  0  0  0  0  0
    1.1209   -0.0105   -0.0018 C   0  0  0  0  0  0  0  0  0  0  0  0
    0.4241   -1.2073   -0.0001 C   0  0  0  0  0  0  0  0  0  0  0  0
   -0.9591   -1.2043    0.0024 C   0  0  0  0  0  0  0  0  0  0  0  0
   -1.7147   -2.5082    0.0044 C   0  0  0  0  0  0  0  0  0  0  0  0
    1.2877   -2.7132    0.0056 Cl  0  0  0  0  0  0  0  0  0  0  0  0
    2.8569   -0.0173    0.0011 Cl  0  0  0  0  0  0  0  0  0  0  0  0
    1.3076    2.6907   -0.0091 Cl  0  0  0  0  0  0  0  0  0  0  0  0
   -1.6307    2.3738   -0.0141 O   0  0  0  0  0  0  0  0  0  0  0  0
   -1.8950   -2.8221    1.0325 H   0  0  0  0  0  0  0  0  0  0  0  0
   -2.6679   -2.3765   -0.5078 H   0  0  0  0  0  0  0  0  0  0  0  0
   -1.1278   -3.2690   -0.5101 H   0  0  0  0  0  0  0  0  0  0  0  0
   -1.8287    2.7174    0.8679 H   0  0  0  0  0  0  0  0  0  0  0  0
  1  2  1  0  0  0  0
  2  3  2  0  0  0  0
  3  4  1  0  0  0  0
  4  5  2  0  0  0  0
  5  6  1  0  0  0  0
  6  7  2  0  0  0  0
  2  7  1  0  0  0  0
  7  8  1  0  0  0  0
  6  9  1  0  0  0  0
  5 10  1  0  0  0  0
  4 11  1  0  0  0  0
  3 12  1  0  0  0  0
  8 13  1  0  0  0  0
  8 14  1  0  0  0  0
  8 15  1  0  0  0  0
 12 16  1  0  0  0  0
M  END
$$$$
