C12H6Cl4O2S
APtclcactv12111704533D 0   0.00000     0.00000
 
 25 26  0  0  0  0  0  0  0  0999 V2000
    3.6951   -0.7249   -0.4936 C   0  0  0  0  0  0  0  0  0  0  0  0
    2.5889   -0.0497   -0.9738 C   0  0  0  0  0  0  0  0  0  0  0  0
    3.4096    0.3268    1.6402 C   0  0  0  0  0  0  0  0  0  0  0  0
    2.3040    1.0022    1.1587 C   0  0  0  0  0  0  0  0  0  0  0  0
   -1.9028    1.0886    0.4274 C   0  0  0  0  0  0  0  0  0  0  0  0
   -2.1512   -1.3605   -0.8363 C   0  0  0  0  0  0  0  0  0  0  0  0
    4.1062   -0.5370    0.8140 C   0  0  0  0  0  0  0  0  0  0  0  0
    1.8935    0.8137   -0.1479 C   0  0  0  0  0  0  0  0  0  0  0  0
   -0.9231    0.6605   -0.4489 C   0  0  0  0  0  0  0  0  0  0  0  0
   -1.0470   -0.5636   -1.0813 C   0  0  0  0  0  0  0  0  0  0  0  0
   -3.1313   -0.9330    0.0405 C   0  0  0  0  0  0  0  0  0  0  0  0
   -3.0072    0.2930    0.6726 C   0  0  0  0  0  0  0  0  0  0  0  0
    0.3338    2.8299    0.0529 O   0  0  0  0  0  0  0  0  0  0  0  0
    0.6314    1.7324   -2.1729 O   0  0  0  0  0  0  0  0  0  0  0  0
    5.4953   -1.3853    1.4179 Cl  0  0  0  0  0  0  0  0  0  0  0  0
    0.1836   -1.1002   -2.1820 Cl  0  0  0  0  0  0  0  0  0  0  0  0
   -4.5173   -1.9321    0.3479 Cl  0  0  0  0  0  0  0  0  0  0  0  0
   -4.2372    0.8306    1.7734 Cl  0  0  0  0  0  0  0  0  0  0  0  0
    0.4836    1.6746   -0.7608 S   0  0  0  0  0  0  0  0  0  0  0  0
    4.2359   -1.4025   -1.1377 H   0  0  0  0  0  0  0  0  0  0  0  0
    2.2679   -0.1963   -1.9945 H   0  0  0  0  0  0  0  0  0  0  0  0
    3.7301    0.4739    2.6610 H   0  0  0  0  0  0  0  0  0  0  0  0
    1.7602    1.6765    1.8035 H   0  0  0  0  0  0  0  0  0  0  0  0
   -1.8036    2.0425    0.9239 H   0  0  0  0  0  0  0  0  0  0  0  0
   -2.2474   -2.3165   -1.3296 H   0  0  0  0  0  0  0  0  0  0  0  0
  1  2  2  0  0  0  0
  1  7  1  0  0  0  0
  2  8  1  0  0  0  0
  3  7  2  0  0  0  0
  7 15  1  0  0  0  0
  3  4  1  0  0  0  0
  4  8  2  0  0  0  0
  8 19  1  0  0  0  0
 13 19  2  0  0  0  0
  9 19  1  0  0  0  0
 14 19  2  0  0  0  0
  9 10  2  0  0  0  0
  5  9  1  0  0  0  0
  6 10  1  0  0  0  0
 10 16  1  0  0  0  0
  5 12  2  0  0  0  0
  6 11  2  0  0  0  0
 11 12  1  0  0  0  0
 11 17  1  0  0  0  0
 12 18  1  0  0  0  0
  1 20  1  0  0  0  0
  2 21  1  0  0  0  0
  3 22  1  0  0  0  0
  4 23  1  0  0  0  0
  5 24  1  0  0  0  0
  6 25  1  0  0  0  0
M  END
$$$$
