C6H7N7
APtclcactv12211716543D 0   0.00000     0.00000
 
 20 21  0  0  0  0  0  0  0  0999 V2000
    3.1845    1.7736    0.0004 N   0  0  0  0  0  0  0  0  0  0  0  0
    2.0871    0.9336    0.0007 C   0  0  0  0  0  0  0  0  0  0  0  0
    0.8804    1.4689    0.0008 N   0  0  0  0  0  0  0  0  0  0  0  0
   -0.2097    0.6899    0.0006 C   0  0  0  0  0  0  0  0  0  0  0  0
   -1.4404    1.2079    0.0002 N   0  0  0  0  0  0  0  0  0  0  0  0
   -2.4879    0.4002   -0.0003 C   0  0  0  0  0  0  0  0  0  0  0  0
   -2.3137   -0.9936   -0.0004 C   0  0  0  0  0  0  0  0  0  0  0  0
   -1.1090   -1.5155    0.0000 N   0  0  0  0  0  0  0  0  0  0  0  0
   -0.0426   -0.7167    0.0005 C   0  0  0  0  0  0  0  0  0  0  0  0
    1.2778   -1.2352    0.0009 C   0  0  0  0  0  0  0  0  0  0  0  0
    2.2901   -0.3806   -0.0045 N   0  0  0  0  0  0  0  0  0  0  0  0
    1.5020   -2.5951    0.0012 N   0  0  0  0  0  0  0  0  0  0  0  0
   -3.7659    0.9327   -0.0003 N   0  0  0  0  0  0  0  0  0  0  0  0
    3.0591    2.7354    0.0002 H   0  0  0  0  0  0  0  0  0  0  0  0
    4.0802    1.4013    0.0044 H   0  0  0  0  0  0  0  0  0  0  0  0
   -3.1780   -1.6412   -0.0004 H   0  0  0  0  0  0  0  0  0  0  0  0
    0.7521   -3.2104    0.0012 H   0  0  0  0  0  0  0  0  0  0  0  0
    2.4098   -2.9370    0.0015 H   0  0  0  0  0  0  0  0  0  0  0  0
   -3.8905    1.8947    0.0000 H   0  0  0  0  0  0  0  0  0  0  0  0
   -4.5367    0.3438   -0.0007 H   0  0  0  0  0  0  0  0  0  0  0  0
  1  2  1  0  0  0  0
  2  3  2  0  0  0  0
  3  4  1  0  0  0  0
  4  5  2  0  0  0  0
  5  6  1  0  0  0  0
  6  7  2  0  0  0  0
  7  8  1  0  0  0  0
  8  9  2  0  0  0  0
  4  9  1  0  0  0  0
  9 10  1  0  0  0  0
 10 11  2  0  0  0  0
  2 11  1  0  0  0  0
 10 12  1  0  0  0  0
  6 13  1  0  0  0  0
  1 14  1  0  0  0  0
  1 15  1  0  0  0  0
  7 16  1  0  0  0  0
 12 17  1  0  0  0  0
 12 18  1  0  0  0  0
 13 19  1  0  0  0  0
 13 20  1  0  0  0  0
M  END
$$$$
