C7H5Cl3O
APtclcactv12151716133D 0   0.00000     0.00000
 
 16 16  0  0  0  0  0  0  0  0999 V2000
   -0.0506   -2.9168    0.0107 Cl  0  0  0  0  0  0  0  0  0  0  0  0
   -0.0266   -1.1810    0.0075 C   0  0  0  0  0  0  0  0  0  0  0  0
    1.1842   -0.5033    0.0091 C   0  0  0  0  0  0  0  0  0  0  0  0
    1.2003    0.8846    0.0060 C   0  0  0  0  0  0  0  0  0  0  0  0
    0.0106    1.5886    0.0013 C   0  0  0  0  0  0  0  0  0  0  0  0
   -1.1957    0.9107   -0.0003 C   0  0  0  0  0  0  0  0  0  0  0  0
   -1.2142   -0.4726   -0.0025 C   0  0  0  0  0  0  0  0  0  0  0  0
   -2.5296   -1.2080   -0.0043 C   0  0  0  0  0  0  0  0  0  0  0  0
   -2.6882    1.7974   -0.0062 Cl  0  0  0  0  0  0  0  0  0  0  0  0
    2.7134    1.7357    0.0086 Cl  0  0  0  0  0  0  0  0  0  0  0  0
    2.3532   -1.1978    0.0141 O   0  0  0  0  0  0  0  0  0  0  0  0
    0.0227    2.6685   -0.0007 H   0  0  0  0  0  0  0  0  0  0  0  0
   -2.8462   -1.3837   -1.0324 H   0  0  0  0  0  0  0  0  0  0  0  0
   -2.4127   -2.1629    0.5080 H   0  0  0  0  0  0  0  0  0  0  0  0
   -3.2813   -0.6093    0.5101 H   0  0  0  0  0  0  0  0  0  0  0  0
    2.6938   -1.4010   -0.8678 H   0  0  0  0  0  0  0  0  0  0  0  0
  1  2  1  0  0  0  0
  2  3  2  0  0  0  0
  3  4  1  0  0  0  0
  4  5  2  0  0  0  0
  5  6  1  0  0  0  0
  6  7  2  0  0  0  0
  2  7  1  0  0  0  0
  7  8  1  0  0  0  0
  6  9  1  0  0  0  0
  4 10  1  0  0  0  0
  3 11  1  0  0  0  0
  5 12  1  0  0  0  0
  8 13  1  0  0  0  0
  8 14  1  0  0  0  0
  8 15  1  0  0  0  0
 11 16  1  0  0  0  0
M  END
$$$$
