C10H12N4O6
APtclcactv12211717243D 0   0.00000     0.00000
 
 32 32  0  0  0  0  0  0  0  0999 V2000
    0.5241   -2.5336    0.0598 N   0  3  0  0  0  0  0  0  0  0  0  0
   -0.1254   -3.5637    0.0817 O   0  0  0  0  0  0  0  0  0  0  0  0
    1.7412   -2.5810    0.0563 O   0  5  0  0  0  0  0  0  0  0  0  0
   -0.1657   -1.2242    0.0312 C   0  0  0  0  0  0  0  0  0  0  0  0
    0.5743   -0.0488    0.0062 C   0  0  0  0  0  0  0  0  0  0  0  0
    1.9701   -0.1003    0.0079 N   0  0  0  0  0  0  0  0  0  0  0  0
    2.5173    0.4088   -1.2567 C   0  0  0  0  0  0  0  0  0  0  0  0
    2.4359   -0.6841   -2.3243 C   0  0  0  0  0  0  0  0  0  0  0  0
    2.5225    0.6339    1.1541 C   0  0  0  0  0  0  0  0  0  0  0  0
    2.5971   -0.2954    2.3672 C   0  0  0  0  0  0  0  0  0  0  0  0
   -0.0770    1.1778   -0.0211 C   0  0  0  0  0  0  0  0  0  0  0  0
   -1.4572    1.2251   -0.0232 C   0  0  0  0  0  0  0  0  0  0  0  0
   -2.1908    0.0531    0.0022 C   0  0  0  0  0  0  0  0  0  0  0  0
   -1.5456   -1.1698    0.0236 C   0  0  0  0  0  0  0  0  0  0  0  0
   -3.6701    0.1077    0.0009 N   0  3  0  0  0  0  0  0  0  0  0  0
   -4.2397    1.1840   -0.0226 O   0  0  0  0  0  0  0  0  0  0  0  0
   -4.3176   -0.9237    0.0232 O   0  5  0  0  0  0  0  0  0  0  0  0
    0.7074    2.4328   -0.0473 N   0  3  0  0  0  0  0  0  0  0  0  0
    0.1414    3.5069    0.0504 O   0  0  0  0  0  0  0  0  0  0  0  0
    1.9189    2.3914   -0.1666 O   0  5  0  0  0  0  0  0  0  0  0  0
    1.9405    1.2756   -1.5794 H   0  0  0  0  0  0  0  0  0  0  0  0
    3.5580    0.6984   -1.1118 H   0  0  0  0  0  0  0  0  0  0  0  0
    1.4072   -1.0347   -2.4078 H   0  0  0  0  0  0  0  0  0  0  0  0
    2.7611   -0.2804   -3.2831 H   0  0  0  0  0  0  0  0  0  0  0  0
    3.0815   -1.5160   -2.0426 H   0  0  0  0  0  0  0  0  0  0  0  0
    3.5224    0.9918    0.9085 H   0  0  0  0  0  0  0  0  0  0  0  0
    1.8795    1.4830    1.3858 H   0  0  0  0  0  0  0  0  0  0  0  0
    1.6125   -0.7219    2.5592 H   0  0  0  0  0  0  0  0  0  0  0  0
    3.3078   -1.0973    2.1674 H   0  0  0  0  0  0  0  0  0  0  0  0
    2.9240    0.2709    3.2392 H   0  0  0  0  0  0  0  0  0  0  0  0
   -1.9643    2.1785   -0.0444 H   0  0  0  0  0  0  0  0  0  0  0  0
   -2.1215   -2.0832    0.0431 H   0  0  0  0  0  0  0  0  0  0  0  0
  1  2  2  0  0  0  0
  1  3  1  0  0  0  0
  1  4  1  0  0  0  0
  4  5  2  0  0  0  0
  5  6  1  0  0  0  0
  6  7  1  0  0  0  0
  7  8  1  0  0  0  0
  6  9  1  0  0  0  0
  9 10  1  0  0  0  0
  5 11  1  0  0  0  0
 11 12  2  0  0  0  0
 12 13  1  0  0  0  0
 13 14  2  0  0  0  0
  4 14  1  0  0  0  0
 13 15  1  0  0  0  0
 15 16  2  0  0  0  0
 15 17  1  0  0  0  0
 11 18  1  0  0  0  0
 18 19  2  0  0  0  0
 18 20  1  0  0  0  0
  7 21  1  0  0  0  0
  7 22  1  0  0  0  0
  8 23  1  0  0  0  0
  8 24  1  0  0  0  0
  8 25  1  0  0  0  0
  9 26  1  0  0  0  0
  9 27  1  0  0  0  0
 10 28  1  0  0  0  0
 10 29  1  0  0  0  0
 10 30  1  0  0  0  0
 12 31  1  0  0  0  0
 14 32  1  0  0  0  0
M  CHG  6   1   1   3  -1  15   1  17  -1  18   1  20  -1
M  END
$$$$
