C7H5Cl3O
APtclcactv12151716133D 0   0.00000     0.00000
 
 16 16  0  0  0  0  0  0  0  0999 V2000
    1.1085   -2.7056    0.1759 Cl  0  0  0  0  0  0  0  0  0  0  0  0
    0.2445   -1.2012    0.1135 C   0  0  0  0  0  0  0  0  0  0  0  0
    0.9375    0.0002    0.1632 C   0  0  0  0  0  0  0  0  0  0  0  0
    0.2442    1.2013    0.1127 C   0  0  0  0  0  0  0  0  0  0  0  0
   -1.1348    1.1987    0.0130 C   0  0  0  0  0  0  0  0  0  0  0  0
   -1.8236   -0.0002   -0.0359 C   0  0  0  0  0  0  0  0  0  0  0  0
   -1.1342   -1.1989    0.0086 C   0  0  0  0  0  0  0  0  0  0  0  0
   -3.5552   -0.0004   -0.1604 Cl  0  0  0  0  0  0  0  0  0  0  0  0
    1.1078    2.7060    0.1751 Cl  0  0  0  0  0  0  0  0  0  0  0  0
    2.2936    0.0004    0.2617 O   0  0  0  0  0  0  0  0  0  0  0  0
    3.0329   -0.0002   -0.9613 C   0  0  0  0  0  0  0  0  0  0  0  0
   -1.6747    2.1333   -0.0263 H   0  0  0  0  0  0  0  0  0  0  0  0
   -1.6739   -2.1336   -0.0301 H   0  0  0  0  0  0  0  0  0  0  0  0
    2.7812   -0.8906   -1.5375 H   0  0  0  0  0  0  0  0  0  0  0  0
    2.7810    0.8894   -1.5385 H   0  0  0  0  0  0  0  0  0  0  0  0
    4.1003   -0.0000   -0.7406 H   0  0  0  0  0  0  0  0  0  0  0  0
  1  2  1  0  0  0  0
  2  3  2  0  0  0  0
  3  4  1  0  0  0  0
  4  5  2  0  0  0  0
  5  6  1  0  0  0  0
  6  7  2  0  0  0  0
  2  7  1  0  0  0  0
  6  8  1  0  0  0  0
  4  9  1  0  0  0  0
  3 10  1  0  0  0  0
 10 11  1  0  0  0  0
  5 12  1  0  0  0  0
  7 13  1  0  0  0  0
 11 14  1  0  0  0  0
 11 15  1  0  0  0  0
 11 16  1  0  0  0  0
M  END
$$$$
