C12H10N4O4
APtclcactv12111704563D 0   0.00000     0.00000
 
 30 31  0  0  0  0  0  0  0  0999 V2000
    2.2100   -0.6788    0.2545 C   0  0  0  0  0  0  0  0  0  0  0  0
    1.1002    1.3060   -1.3268 C   0  0  0  0  0  0  0  0  0  0  0  0
    2.3706    1.4634   -0.8094 C   0  0  0  0  0  0  0  0  0  0  0  0
   -3.3028    0.0197   -1.2674 C   0  0  0  0  0  0  0  0  0  0  0  0
   -1.8572    0.7319    0.5184 C   0  0  0  0  0  0  0  0  0  0  0  0
   -4.4055    0.2749   -0.4765 C   0  0  0  0  0  0  0  0  0  0  0  0
   -2.9599    0.9871    1.3092 C   0  0  0  0  0  0  0  0  0  0  0  0
   -1.0255   -0.3040   -2.4914 H   0  0  0  0  0  0  0  0  0  0  0  0
   -6.2472    0.8596    1.2697 H   0  0  0  0  0  0  0  0  0  0  0  0
   -5.2375    1.3568    2.5171 H   0  0  0  0  0  0  0  0  0  0  0  0
    0.9386   -0.8427   -0.2595 C   0  0  0  0  0  0  0  0  0  0  0  0
    0.3785    0.1505   -1.0530 C   0  0  0  0  0  0  0  0  0  0  0  0
    2.9253    0.4722   -0.0200 C   0  0  0  0  0  0  0  0  0  0  0  0
   -2.0254    0.2474   -0.7723 C   0  0  0  0  0  0  0  0  0  0  0  0
   -4.2372    0.7593    0.8140 C   0  0  0  0  0  0  0  0  0  0  0  0
    0.6211   -2.8988    0.8127 O   0  0  0  0  0  0  0  0  0  0  0  0
    4.7775   -0.2274    1.2281 O   0  0  0  0  0  0  0  0  0  0  0  0
   -5.3550    1.0184    1.6156 N   0  0  0  0  0  0  0  0  0  0  0  0
   -0.9029   -2.2667   -0.5020 O   0  5  0  0  0  0  0  0  0  0  0  0
    4.9191    1.6577    0.2916 O   0  5  0  0  0  0  0  0  0  0  0  0
   -0.9073   -0.0117   -1.5741 N   0  0  0  0  0  0  0  0  0  0  0  0
    0.1738   -2.0755    0.0344 N   0  3  0  0  0  0  0  0  0  0  0  0
    4.2878    0.6444    0.5325 N   0  3  0  0  0  0  0  0  0  0  0  0
    2.6443   -1.4486    0.8751 H   0  0  0  0  0  0  0  0  0  0  0  0
    0.6677    2.0803   -1.9430 H   0  0  0  0  0  0  0  0  0  0  0  0
    2.9321    2.3612   -1.0217 H   0  0  0  0  0  0  0  0  0  0  0  0
   -3.4336   -0.3612   -2.2695 H   0  0  0  0  0  0  0  0  0  0  0  0
   -0.8639    0.9094    0.9033 H   0  0  0  0  0  0  0  0  0  0  0  0
   -5.3989    0.0981   -0.8617 H   0  0  0  0  0  0  0  0  0  0  0  0
   -2.8291    1.3638    2.3129 H   0  0  0  0  0  0  0  0  0  0  0  0
 11 12  2  0  0  0  0
  1 11  1  0  0  0  0
 11 22  1  0  0  0  0
 12 21  1  0  0  0  0
  2 12  1  0  0  0  0
  1 13  2  0  0  0  0
 16 22  2  0  0  0  0
 19 22  1  0  0  0  0
 14 21  1  0  0  0  0
  2  3  2  0  0  0  0
 13 23  1  0  0  0  0
  4 14  2  0  0  0  0
  5 14  1  0  0  0  0
 17 23  2  0  0  0  0
 20 23  1  0  0  0  0
  4  6  1  0  0  0  0
  5  7  2  0  0  0  0
  6 15  2  0  0  0  0
 15 18  1  0  0  0  0
  3 13  1  0  0  0  0
  7 15  1  0  0  0  0
  1 24  1  0  0  0  0
  8 21  1  0  0  0  0
  2 25  1  0  0  0  0
  3 26  1  0  0  0  0
  4 27  1  0  0  0  0
  5 28  1  0  0  0  0
  6 29  1  0  0  0  0
  7 30  1  0  0  0  0
  9 18  1  0  0  0  0
 10 18  1  0  0  0  0
M  CHG  4  19  -1  20  -1  22   1  23   1
M  END
$$$$
