C4H4N2O2
APtclcactv12211716363D 0   0.00000     0.00000
 
 12 12  0  0  0  0  0  0  0  0999 V2000
    2.2927   -0.9868   -0.0413 O   0  0  0  0  0  0  0  0  0  0  0  0
    1.1338   -0.2858   -0.0202 C   0  0  0  0  0  0  0  0  0  0  0  0
    1.1801    1.0363   -0.0214 N   0  0  0  0  0  0  0  0  0  0  0  0
    0.0680    1.7561   -0.0011 C   0  0  0  0  0  0  0  0  0  0  0  0
   -1.1536    1.1107    0.0215 C   0  0  0  0  0  0  0  0  0  0  0  0
   -1.1689   -0.2835    0.0222 C   0  0  0  0  0  0  0  0  0  0  0  0
   -0.0157   -0.9406   -0.0043 N   0  0  0  0  0  0  0  0  0  0  0  0
   -2.3440   -0.9579    0.0444 O   0  0  0  0  0  0  0  0  0  0  0  0
    2.6454   -1.1902    0.8359 H   0  0  0  0  0  0  0  0  0  0  0  0
    0.1157    2.8351   -0.0019 H   0  0  0  0  0  0  0  0  0  0  0  0
   -2.0754    1.6733    0.0386 H   0  0  0  0  0  0  0  0  0  0  0  0
   -2.7017   -1.1539   -0.8324 H   0  0  0  0  0  0  0  0  0  0  0  0
  1  2  1  0  0  0  0
  2  3  2  0  0  0  0
  3  4  1  0  0  0  0
  4  5  2  0  0  0  0
  5  6  1  0  0  0  0
  6  7  2  0  0  0  0
  2  7  1  0  0  0  0
  6  8  1  0  0  0  0
  1  9  1  0  0  0  0
  4 10  1  0  0  0  0
  5 11  1  0  0  0  0
  8 12  1  0  0  0  0
M  END
$$$$
