C12H9N3O4
APtclcactv12111704563D 0   0.00000     0.00000
 
 28 29  0  0  0  0  0  0  0  0999 V2000
    0.7986    1.5454   -1.0475 C   0  0  0  0  0  0  0  0  0  0  0  0
    1.8675   -0.7418    0.0914 C   0  0  0  0  0  0  0  0  0  0  0  0
    2.1086    1.5373   -0.6115 C   0  0  0  0  0  0  0  0  0  0  0  0
   -3.6704    0.4134   -0.8506 C   0  0  0  0  0  0  0  0  0  0  0  0
   -2.0701    0.7631    0.9095 C   0  0  0  0  0  0  0  0  0  0  0  0
   -4.6976    0.5315    0.0648 C   0  0  0  0  0  0  0  0  0  0  0  0
   -3.1022    0.8803    1.8196 C   0  0  0  0  0  0  0  0  0  0  0  0
   -4.4143    0.7651    1.3981 C   0  0  0  0  0  0  0  0  0  0  0  0
   -1.5070    0.3299   -2.3004 H   0  0  0  0  0  0  0  0  0  0  0  0
    0.0166    0.4046   -0.9144 C   0  0  0  0  0  0  0  0  0  0  0  0
    0.5563   -0.7406   -0.3427 C   0  0  0  0  0  0  0  0  0  0  0  0
   -2.3512    0.5289   -0.4307 C   0  0  0  0  0  0  0  0  0  0  0  0
    2.6429    0.3951   -0.0431 C   0  0  0  0  0  0  0  0  0  0  0  0
    0.1741   -2.9352    0.3750 O   0  0  0  0  0  0  0  0  0  0  0  0
    4.5192   -0.6144    0.9255 O   0  0  0  0  0  0  0  0  0  0  0  0
   -1.4019   -1.9837   -0.6553 O   0  5  0  0  0  0  0  0  0  0  0  0
    4.7320    1.3910    0.3059 O   0  5  0  0  0  0  0  0  0  0  0  0
   -1.3095    0.4094   -1.3541 N   0  0  0  0  0  0  0  0  0  0  0  0
   -0.2728   -1.9584   -0.1992 N   0  3  0  0  0  0  0  0  0  0  0  0
    4.0476    0.3903    0.4237 N   0  3  0  0  0  0  0  0  0  0  0  0
    0.3808    2.4389   -1.4875 H   0  0  0  0  0  0  0  0  0  0  0  0
    2.2877   -1.6318    0.5360 H   0  0  0  0  0  0  0  0  0  0  0  0
    2.7170    2.4237   -0.7147 H   0  0  0  0  0  0  0  0  0  0  0  0
   -3.8923    0.2269   -1.8910 H   0  0  0  0  0  0  0  0  0  0  0  0
   -1.0457    0.8539    1.2392 H   0  0  0  0  0  0  0  0  0  0  0  0
   -5.7234    0.4418   -0.2610 H   0  0  0  0  0  0  0  0  0  0  0  0
   -2.8844    1.0620    2.8617 H   0  0  0  0  0  0  0  0  0  0  0  0
   -5.2195    0.8575    2.1118 H   0  0  0  0  0  0  0  0  0  0  0  0
 10 11  2  0  0  0  0
 10 18  1  0  0  0  0
  1 10  1  0  0  0  0
  2 11  1  0  0  0  0
 11 19  1  0  0  0  0
 12 18  1  0  0  0  0
  1  3  2  0  0  0  0
  2 13  2  0  0  0  0
 14 19  2  0  0  0  0
 16 19  1  0  0  0  0
  4 12  1  0  0  0  0
  5 12  2  0  0  0  0
 13 20  1  0  0  0  0
  4  6  2  0  0  0  0
  5  7  1  0  0  0  0
 15 20  2  0  0  0  0
 17 20  1  0  0  0  0
  6  8  1  0  0  0  0
  3 13  1  0  0  0  0
  7  8  2  0  0  0  0
  9 18  1  0  0  0  0
  1 21  1  0  0  0  0
  2 22  1  0  0  0  0
  3 23  1  0  0  0  0
  4 24  1  0  0  0  0
  5 25  1  0  0  0  0
  6 26  1  0  0  0  0
  7 27  1  0  0  0  0
  8 28  1  0  0  0  0
M  CHG  4  16  -1  17  -1  19   1  20   1
M  END
$$$$
