C7H16
APtclcactv12151716233D 0   0.00000     0.00000
 
 23 22  0  0  0  0  0  0  0  0999 V2000
    2.4346   -0.7292    0.5615 C   0  0  0  0  0  0  0  0  0  0  0  0
    1.2299    0.1497    0.2191 C   0  0  0  0  0  0  0  0  0  0  0  0
    1.5227    0.9419   -1.0566 C   0  0  0  0  0  0  0  0  0  0  0  0
   -0.0000   -0.7337   -0.0000 C   0  0  0  0  0  0  0  0  0  0  0  0
   -1.2299    0.1497   -0.2191 C   0  0  0  0  0  0  0  0  0  0  0  0
   -2.4346   -0.7292   -0.5615 C   0  0  0  0  0  0  0  0  0  0  0  0
   -1.5227    0.9419    1.0566 C   0  0  0  0  0  0  0  0  0  0  0  0
    3.3107   -0.0999    0.7176 H   0  0  0  0  0  0  0  0  0  0  0  0
    2.2260   -1.2936    1.4704 H   0  0  0  0  0  0  0  0  0  0  0  0
    2.6252   -1.4203   -0.2596 H   0  0  0  0  0  0  0  0  0  0  0  0
    1.0392    0.8407    1.0402 H   0  0  0  0  0  0  0  0  0  0  0  0
    1.7133    0.2508   -1.8777 H   0  0  0  0  0  0  0  0  0  0  0  0
    0.6644    1.5680   -1.3005 H   0  0  0  0  0  0  0  0  0  0  0  0
    2.3988    1.5712   -0.9005 H   0  0  0  0  0  0  0  0  0  0  0  0
    0.1561   -1.3630   -0.8762 H   0  0  0  0  0  0  0  0  0  0  0  0
   -0.1561   -1.3630    0.8762 H   0  0  0  0  0  0  0  0  0  0  0  0
   -1.0392    0.8407   -1.0402 H   0  0  0  0  0  0  0  0  0  0  0  0
   -2.6252   -1.4203    0.2596 H   0  0  0  0  0  0  0  0  0  0  0  0
   -3.3107   -0.0999   -0.7176 H   0  0  0  0  0  0  0  0  0  0  0  0
   -2.2260   -1.2936   -1.4704 H   0  0  0  0  0  0  0  0  0  0  0  0
   -0.6644    1.5680    1.3005 H   0  0  0  0  0  0  0  0  0  0  0  0
   -2.3988    1.5712    0.9005 H   0  0  0  0  0  0  0  0  0  0  0  0
   -1.7133    0.2508    1.8777 H   0  0  0  0  0  0  0  0  0  0  0  0
  1  2  1  0  0  0  0
  2  3  1  0  0  0  0
  2  4  1  0  0  0  0
  4  5  1  0  0  0  0
  5  6  1  0  0  0  0
  5  7  1  0  0  0  0
  1  8  1  0  0  0  0
  1  9  1  0  0  0  0
  1 10  1  0  0  0  0
  2 11  1  0  0  0  0
  3 12  1  0  0  0  0
  3 13  1  0  0  0  0
  3 14  1  0  0  0  0
  4 15  1  0  0  0  0
  4 16  1  0  0  0  0
  5 17  1  0  0  0  0
  6 18  1  0  0  0  0
  6 19  1  0  0  0  0
  6 20  1  0  0  0  0
  7 21  1  0  0  0  0
  7 22  1  0  0  0  0
  7 23  1  0  0  0  0
M  END
$$$$
