C9H10O2
APtclcactv12151716453D 0   0.00000     0.00000
 
 21 21  0  0  0  0  0  0  0  0999 V2000
    0.6547    2.2723    0.0425 C   0  0  0  0  0  0  0  0  0  0  0  0
   -0.1323    0.9873    0.0175 C   0  0  0  0  0  0  0  0  0  0  0  0
    0.5326   -0.2400   -0.0084 C   0  0  0  0  0  0  0  0  0  0  0  0
    2.0092   -0.2839   -0.0110 C   0  0  0  0  0  0  0  0  0  0  0  0
    2.6474    0.7455   -0.1034 O   0  0  0  0  0  0  0  0  0  0  0  0
    2.6481   -1.4657    0.0892 O   0  0  0  0  0  0  0  0  0  0  0  0
   -0.2044   -1.4259   -0.0315 C   0  0  0  0  0  0  0  0  0  0  0  0
   -1.5828   -1.3776   -0.0286 C   0  0  0  0  0  0  0  0  0  0  0  0
   -2.2355   -0.1576   -0.0028 C   0  0  0  0  0  0  0  0  0  0  0  0
   -1.5115    1.0210    0.0259 C   0  0  0  0  0  0  0  0  0  0  0  0
   -3.7418   -0.1127    0.0003 C   0  0  0  0  0  0  0  0  0  0  0  0
    0.9473    2.5390   -0.9731 H   0  0  0  0  0  0  0  0  0  0  0  0
    0.0393    3.0671    0.4639 H   0  0  0  0  0  0  0  0  0  0  0  0
    1.5468    2.1401    0.6547 H   0  0  0  0  0  0  0  0  0  0  0  0
    3.6148   -1.4440    0.0832 H   0  0  0  0  0  0  0  0  0  0  0  0
    0.3037   -2.3786   -0.0520 H   0  0  0  0  0  0  0  0  0  0  0  0
   -2.1540   -2.2939   -0.0468 H   0  0  0  0  0  0  0  0  0  0  0  0
   -2.0271    1.9697    0.0463 H   0  0  0  0  0  0  0  0  0  0  0  0
   -4.1035   -0.1228    1.0284 H   0  0  0  0  0  0  0  0  0  0  0  0
   -4.0792    0.7980   -0.4947 H   0  0  0  0  0  0  0  0  0  0  0  0
   -4.1322   -0.9808   -0.5308 H   0  0  0  0  0  0  0  0  0  0  0  0
  1  2  1  0  0  0  0
  2  3  2  0  0  0  0
  3  4  1  0  0  0  0
  4  5  2  0  0  0  0
  4  6  1  0  0  0  0
  3  7  1  0  0  0  0
  7  8  2  0  0  0  0
  8  9  1  0  0  0  0
  9 10  2  0  0  0  0
  2 10  1  0  0  0  0
  9 11  1  0  0  0  0
  1 12  1  0  0  0  0
  1 13  1  0  0  0  0
  1 14  1  0  0  0  0
  6 15  1  0  0  0  0
  7 16  1  0  0  0  0
  8 17  1  0  0  0  0
 10 18  1  0  0  0  0
 11 19  1  0  0  0  0
 11 20  1  0  0  0  0
 11 21  1  0  0  0  0
M  END
$$$$
