C13H16Cl2O3
APtclcactv12071713263D 0   0.00000     0.00000
 
 34 34  0  0  0  0  0  0  0  0999 V2000
   -5.6405    1.2431    0.4705 C   0  0  0  0  0  0  0  0  0  0  0  0
   -5.2494    1.7242    1.8693 C   0  0  0  0  0  0  0  0  0  0  0  0
   -4.6264    0.2048   -0.0137 C   0  0  0  0  0  0  0  0  0  0  0  0
   -5.0841   -0.3674   -1.3568 C   0  0  0  0  0  0  0  0  0  0  0  0
   -4.1381   -1.4926   -1.7808 C   0  0  0  0  0  0  0  0  0  0  0  0
   -3.3277    0.8344   -0.1731 O   0  0  0  0  0  0  0  0  0  0  0  0
   -2.2477    0.0609    0.0197 C   0  0  0  0  0  0  0  0  0  0  0  0
   -0.8665    0.6450   -0.1284 C   0  0  0  0  0  0  0  0  0  0  0  0
    0.1088   -0.3683    0.1248 O   0  0  0  0  0  0  0  0  0  0  0  0
    1.4154   -0.0043    0.0320 C   0  0  0  0  0  0  0  0  0  0  0  0
    2.4153   -0.9383    0.2652 C   0  0  0  0  0  0  0  0  0  0  0  0
    3.7433   -0.5658    0.1698 C   0  0  0  0  0  0  0  0  0  0  0  0
    4.0752    0.7367   -0.1579 C   0  0  0  0  0  0  0  0  0  0  0  0
    3.0793    1.6688   -0.3907 C   0  0  0  0  0  0  0  0  0  0  0  0
    1.7511    1.2995   -0.3015 C   0  0  0  0  0  0  0  0  0  0  0  0
    5.7433    1.2024   -0.2767 Cl  0  0  0  0  0  0  0  0  0  0  0  0
    1.9988   -2.5725    0.6770 Cl  0  0  0  0  0  0  0  0  0  0  0  0
   -2.3831   -1.1036    0.3121 O   0  0  0  0  0  0  0  0  0  0  0  0
   -6.6327    0.7932    0.5052 H   0  0  0  0  0  0  0  0  0  0  0  0
   -5.6493    2.0899   -0.2157 H   0  0  0  0  0  0  0  0  0  0  0  0
   -4.2572    2.1741    1.8346 H   0  0  0  0  0  0  0  0  0  0  0  0
   -5.9719    2.4639    2.2142 H   0  0  0  0  0  0  0  0  0  0  0  0
   -5.2406    0.8774    2.5555 H   0  0  0  0  0  0  0  0  0  0  0  0
   -4.5527   -0.5998    0.7179 H   0  0  0  0  0  0  0  0  0  0  0  0
   -6.0957   -0.7610   -1.2583 H   0  0  0  0  0  0  0  0  0  0  0  0
   -5.0725    0.4203   -2.1102 H   0  0  0  0  0  0  0  0  0  0  0  0
   -3.1264   -1.0990   -1.8793 H   0  0  0  0  0  0  0  0  0  0  0  0
   -4.1497   -2.2803   -1.0274 H   0  0  0  0  0  0  0  0  0  0  0  0
   -4.4642   -1.9003   -2.7376 H   0  0  0  0  0  0  0  0  0  0  0  0
   -0.7398    1.0261   -1.1417 H   0  0  0  0  0  0  0  0  0  0  0  0
   -0.7379    1.4593    0.5847 H   0  0  0  0  0  0  0  0  0  0  0  0
    4.5220   -1.2918    0.3515 H   0  0  0  0  0  0  0  0  0  0  0  0
    3.3407    2.6851   -0.6464 H   0  0  0  0  0  0  0  0  0  0  0  0
    0.9745    2.0276   -0.4833 H   0  0  0  0  0  0  0  0  0  0  0  0
  1  2  1  0  0  0  0
  1  3  1  0  0  0  0
  3  4  1  0  0  0  0
  4  5  1  0  0  0  0
  3  6  1  0  0  0  0
  6  7  1  0  0  0  0
  7  8  1  0  0  0  0
  8  9  1  0  0  0  0
  9 10  1  0  0  0  0
 10 11  2  0  0  0  0
 11 12  1  0  0  0  0
 12 13  2  0  0  0  0
 13 14  1  0  0  0  0
 14 15  2  0  0  0  0
 10 15  1  0  0  0  0
 13 16  1  0  0  0  0
 11 17  1  0  0  0  0
  7 18  2  0  0  0  0
  1 19  1  0  0  0  0
  1 20  1  0  0  0  0
  2 21  1  0  0  0  0
  2 22  1  0  0  0  0
  2 23  1  0  0  0  0
  3 24  1  0  0  0  0
  4 25  1  0  0  0  0
  4 26  1  0  0  0  0
  5 27  1  0  0  0  0
  5 28  1  0  0  0  0
  5 29  1  0  0  0  0
  8 30  1  0  0  0  0
  8 31  1  0  0  0  0
 12 32  1  0  0  0  0
 14 33  1  0  0  0  0
 15 34  1  0  0  0  0
M  END
$$$$
