C9H12Cl2N4
APtclcactv12151716473D 0   0.00000     0.00000
 
 27 28  0  0  0  0  0  0  0  0999 V2000
   -4.0119    1.7380    0.1962 Cl  0  0  0  0  0  0  0  0  0  0  0  0
   -2.5651    0.7891    0.0551 C   0  0  0  0  0  0  0  0  0  0  0  0
   -1.3852    1.3849    0.0212 N   0  0  0  0  0  0  0  0  0  0  0  0
   -0.2771    0.6571   -0.0865 C   0  0  0  0  0  0  0  0  0  0  0  0
   -0.3599   -0.6684   -0.1597 N   0  0  0  0  0  0  0  0  0  0  0  0
   -1.5428   -1.2583   -0.1253 C   0  0  0  0  0  0  0  0  0  0  0  0
   -2.6440   -0.5312   -0.0129 N   0  0  0  0  0  0  0  0  0  0  0  0
   -1.6520   -2.9882   -0.2214 Cl  0  0  0  0  0  0  0  0  0  0  0  0
    0.9557    1.2759   -0.1226 N   0  0  0  0  0  0  0  0  0  0  0  0
    2.1752    0.4727   -0.2412 C   0  0  0  0  0  0  0  0  0  0  0  0
    3.2845    1.3195   -0.8684 C   0  0  0  0  0  0  0  0  0  0  0  0
    4.5581    0.4807   -0.9923 C   0  0  0  0  0  0  0  0  0  0  0  0
    4.9974    0.0123    0.3964 C   0  0  0  0  0  0  0  0  0  0  0  0
    3.8881   -0.8344    1.0236 C   0  0  0  0  0  0  0  0  0  0  0  0
    2.6145    0.0044    1.1475 C   0  0  0  0  0  0  0  0  0  0  0  0
    1.0149    2.2426   -0.0694 H   0  0  0  0  0  0  0  0  0  0  0  0
    1.9793   -0.3944   -0.8720 H   0  0  0  0  0  0  0  0  0  0  0  0
    2.9715    1.6531   -1.8578 H   0  0  0  0  0  0  0  0  0  0  0  0
    3.4804    2.1865   -0.2377 H   0  0  0  0  0  0  0  0  0  0  0  0
    4.3622   -0.3864   -1.6231 H   0  0  0  0  0  0  0  0  0  0  0  0
    5.3484    1.0839   -1.4392 H   0  0  0  0  0  0  0  0  0  0  0  0
    5.9047   -0.5852    0.3081 H   0  0  0  0  0  0  0  0  0  0  0  0
    5.1933    0.8794    1.0271 H   0  0  0  0  0  0  0  0  0  0  0  0
    3.6922   -1.7015    0.3928 H   0  0  0  0  0  0  0  0  0  0  0  0
    4.2011   -1.1681    2.0129 H   0  0  0  0  0  0  0  0  0  0  0  0
    2.8104    0.8714    1.7783 H   0  0  0  0  0  0  0  0  0  0  0  0
    1.8242   -0.5989    1.5943 H   0  0  0  0  0  0  0  0  0  0  0  0
  1  2  1  0  0  0  0
  2  3  2  0  0  0  0
  3  4  1  0  0  0  0
  4  5  2  0  0  0  0
  5  6  1  0  0  0  0
  6  7  2  0  0  0  0
  2  7  1  0  0  0  0
  6  8  1  0  0  0  0
  4  9  1  0  0  0  0
  9 10  1  0  0  0  0
 10 11  1  0  0  0  0
 11 12  1  0  0  0  0
 12 13  1  0  0  0  0
 13 14  1  0  0  0  0
 14 15  1  0  0  0  0
 10 15  1  0  0  0  0
  9 16  1  0  0  0  0
 10 17  1  0  0  0  0
 11 18  1  0  0  0  0
 11 19  1  0  0  0  0
 12 20  1  0  0  0  0
 12 21  1  0  0  0  0
 13 22  1  0  0  0  0
 13 23  1  0  0  0  0
 14 24  1  0  0  0  0
 14 25  1  0  0  0  0
 15 26  1  0  0  0  0
 15 27  1  0  0  0  0
M  END
$$$$
