C18H20
APtclcactv12211717173D 0   0.00000     0.00000
 
 38 39  0  0  0  0  0  0  0  0999 V2000
    2.2268   -0.0294   -0.1299 C   0  0  0  0  0  0  0  0  0  0  0  0
    3.2387   -0.6737   -0.8425 C   0  0  0  0  0  0  0  0  0  0  0  0
    4.5542   -0.3016   -0.6559 C   0  0  0  0  0  0  0  0  0  0  0  0
    4.8708    0.7076    0.2358 C   0  0  0  0  0  0  0  0  0  0  0  0
    3.8722    1.3503    0.9454 C   0  0  0  0  0  0  0  0  0  0  0  0
    2.5528    0.9880    0.7677 C   0  0  0  0  0  0  0  0  0  0  0  0
    0.8149   -0.4189   -0.3294 C   0  0  0  0  0  0  0  0  0  0  0  0
    0.1530   -0.1951   -1.6646 C   0  0  0  0  0  0  0  0  0  0  0  0
    0.1309   -0.9650    0.6663 C   0  0  0  0  0  0  0  0  0  0  0  0
   -1.3055   -1.3714    0.4598 C   0  0  0  0  0  0  0  0  0  0  0  0
   -1.3995   -2.3235   -0.7342 C   0  0  0  0  0  0  0  0  0  0  0  0
   -1.8217   -2.0762    1.7159 C   0  0  0  0  0  0  0  0  0  0  0  0
   -2.1408   -0.1460    0.1922 C   0  0  0  0  0  0  0  0  0  0  0  0
   -3.4683   -0.2799   -0.1695 C   0  0  0  0  0  0  0  0  0  0  0  0
   -4.2345    0.8442   -0.4151 C   0  0  0  0  0  0  0  0  0  0  0  0
   -3.6734    2.1021   -0.2985 C   0  0  0  0  0  0  0  0  0  0  0  0
   -2.3462    2.2360    0.0641 C   0  0  0  0  0  0  0  0  0  0  0  0
   -1.5811    1.1121    0.3139 C   0  0  0  0  0  0  0  0  0  0  0  0
    2.9928   -1.4622   -1.5384 H   0  0  0  0  0  0  0  0  0  0  0  0
    5.3383   -0.7995   -1.2069 H   0  0  0  0  0  0  0  0  0  0  0  0
    5.9021    0.9947    0.3788 H   0  0  0  0  0  0  0  0  0  0  0  0
    4.1260    2.1372    1.6403 H   0  0  0  0  0  0  0  0  0  0  0  0
    1.7741    1.4907    1.3220 H   0  0  0  0  0  0  0  0  0  0  0  0
    0.2191   -1.1057   -2.2600 H   0  0  0  0  0  0  0  0  0  0  0  0
   -0.8947    0.0639   -1.5119 H   0  0  0  0  0  0  0  0  0  0  0  0
    0.6559    0.6183   -2.1877 H   0  0  0  0  0  0  0  0  0  0  0  0
    0.6030   -1.1185    1.6254 H   0  0  0  0  0  0  0  0  0  0  0  0
   -0.6569   -3.1143   -0.6277 H   0  0  0  0  0  0  0  0  0  0  0  0
   -2.3961   -2.7634   -0.7705 H   0  0  0  0  0  0  0  0  0  0  0  0
   -1.2125   -1.7710   -1.6550 H   0  0  0  0  0  0  0  0  0  0  0  0
   -1.7547   -1.3979    2.5665 H   0  0  0  0  0  0  0  0  0  0  0  0
   -2.8606   -2.3702    1.5666 H   0  0  0  0  0  0  0  0  0  0  0  0
   -1.2175   -2.9625    1.9095 H   0  0  0  0  0  0  0  0  0  0  0  0
   -3.9067   -1.2627   -0.2606 H   0  0  0  0  0  0  0  0  0  0  0  0
   -5.2714    0.7395   -0.6983 H   0  0  0  0  0  0  0  0  0  0  0  0
   -4.2718    2.9803   -0.4910 H   0  0  0  0  0  0  0  0  0  0  0  0
   -1.9077    3.2188    0.1549 H   0  0  0  0  0  0  0  0  0  0  0  0
   -0.5442    1.2167    0.5972 H   0  0  0  0  0  0  0  0  0  0  0  0
  1  2  2  0  0  0  0
  2  3  1  0  0  0  0
  3  4  2  0  0  0  0
  4  5  1  0  0  0  0
  5  6  2  0  0  0  0
  1  6  1  0  0  0  0
  1  7  1  0  0  0  0
  7  8  1  0  0  0  0
  7  9  2  0  0  0  0
  9 10  1  0  0  0  0
 10 11  1  0  0  0  0
 10 12  1  0  0  0  0
 10 13  1  0  0  0  0
 13 14  2  0  0  0  0
 14 15  1  0  0  0  0
 15 16  2  0  0  0  0
 16 17  1  0  0  0  0
 17 18  2  0  0  0  0
 13 18  1  0  0  0  0
  2 19  1  0  0  0  0
  3 20  1  0  0  0  0
  4 21  1  0  0  0  0
  5 22  1  0  0  0  0
  6 23  1  0  0  0  0
  8 24  1  0  0  0  0
  8 25  1  0  0  0  0
  8 26  1  0  0  0  0
  9 27  1  0  0  0  0
 11 28  1  0  0  0  0
 11 29  1  0  0  0  0
 11 30  1  0  0  0  0
 12 31  1  0  0  0  0
 12 32  1  0  0  0  0
 12 33  1  0  0  0  0
 14 34  1  0  0  0  0
 15 35  1  0  0  0  0
 16 36  1  0  0  0  0
 17 37  1  0  0  0  0
 18 38  1  0  0  0  0
M  END
$$$$
