C14H16Cl2O3
APtclcactv12211717023D 0   0.00000     0.00000
 
 35 36  0  0  0  0  0  0  0  0999 V2000
   -4.1168   -0.2647   -0.2115 C   0  0  0  0  0  0  0  0  0  0  0  0
   -5.1018   -1.2110   -0.9008 C   0  0  0  0  0  0  0  0  0  0  0  0
   -6.4748   -0.5417   -0.9896 C   0  0  0  0  0  0  0  0  0  0  0  0
   -6.9775   -0.2201    0.4192 C   0  0  0  0  0  0  0  0  0  0  0  0
   -5.9925    0.7262    1.1086 C   0  0  0  0  0  0  0  0  0  0  0  0
   -4.6195    0.0569    1.1974 C   0  0  0  0  0  0  0  0  0  0  0  0
   -2.8138   -0.8998   -0.1272 O   0  0  0  0  0  0  0  0  0  0  0  0
   -1.7406   -0.0940   -0.1488 C   0  0  0  0  0  0  0  0  0  0  0  0
   -0.3554   -0.6815   -0.0652 C   0  0  0  0  0  0  0  0  0  0  0  0
    0.6114    0.3700   -0.1069 O   0  0  0  0  0  0  0  0  0  0  0  0
    1.9202    0.0081   -0.0412 C   0  0  0  0  0  0  0  0  0  0  0  0
    2.9122    0.9783   -0.0765 C   0  0  0  0  0  0  0  0  0  0  0  0
    4.2424    0.6077   -0.0090 C   0  0  0  0  0  0  0  0  0  0  0  0
    4.5844   -0.7288    0.0937 C   0  0  0  0  0  0  0  0  0  0  0  0
    3.5965   -1.6971    0.1290 C   0  0  0  0  0  0  0  0  0  0  0  0
    2.2659   -1.3308    0.0671 C   0  0  0  0  0  0  0  0  0  0  0  0
    6.2554   -1.1920    0.1777 Cl  0  0  0  0  0  0  0  0  0  0  0  0
    2.4829    2.6554   -0.2060 Cl  0  0  0  0  0  0  0  0  0  0  0  0
   -1.8851    1.1025   -0.2352 O   0  0  0  0  0  0  0  0  0  0  0  0
   -4.0351    0.6572   -0.7873 H   0  0  0  0  0  0  0  0  0  0  0  0
   -4.7437   -1.4401   -1.9045 H   0  0  0  0  0  0  0  0  0  0  0  0
   -5.1836   -2.1328   -0.3250 H   0  0  0  0  0  0  0  0  0  0  0  0
   -6.3931    0.3802   -1.5654 H   0  0  0  0  0  0  0  0  0  0  0  0
   -7.1766   -1.2159   -1.4807 H   0  0  0  0  0  0  0  0  0  0  0  0
   -7.9557    0.2567    0.3560 H   0  0  0  0  0  0  0  0  0  0  0  0
   -7.0592   -1.1420    0.9951 H   0  0  0  0  0  0  0  0  0  0  0  0
   -5.9108    1.6480    0.5327 H   0  0  0  0  0  0  0  0  0  0  0  0
   -6.3506    0.9553    2.1122 H   0  0  0  0  0  0  0  0  0  0  0  0
   -4.7012   -0.8650    1.7732 H   0  0  0  0  0  0  0  0  0  0  0  0
   -3.9178    0.7311    1.6885 H   0  0  0  0  0  0  0  0  0  0  0  0
   -0.2509   -1.2343    0.8684 H   0  0  0  0  0  0  0  0  0  0  0  0
   -0.1953   -1.3558   -0.9065 H   0  0  0  0  0  0  0  0  0  0  0  0
    5.0149    1.3620   -0.0369 H   0  0  0  0  0  0  0  0  0  0  0  0
    3.8658   -2.7399    0.2092 H   0  0  0  0  0  0  0  0  0  0  0  0
    1.4954   -2.0871    0.0948 H   0  0  0  0  0  0  0  0  0  0  0  0
  1  2  1  0  0  0  0
  2  3  1  0  0  0  0
  3  4  1  0  0  0  0
  4  5  1  0  0  0  0
  5  6  1  0  0  0  0
  1  6  1  0  0  0  0
  1  7  1  0  0  0  0
  7  8  1  0  0  0  0
  8  9  1  0  0  0  0
  9 10  1  0  0  0  0
 10 11  1  0  0  0  0
 11 12  2  0  0  0  0
 12 13  1  0  0  0  0
 13 14  2  0  0  0  0
 14 15  1  0  0  0  0
 15 16  2  0  0  0  0
 11 16  1  0  0  0  0
 14 17  1  0  0  0  0
 12 18  1  0  0  0  0
  8 19  2  0  0  0  0
  1 20  1  0  0  0  0
  2 21  1  0  0  0  0
  2 22  1  0  0  0  0
  3 23  1  0  0  0  0
  3 24  1  0  0  0  0
  4 25  1  0  0  0  0
  4 26  1  0  0  0  0
  5 27  1  0  0  0  0
  5 28  1  0  0  0  0
  6 29  1  0  0  0  0
  6 30  1  0  0  0  0
  9 31  1  0  0  0  0
  9 32  1  0  0  0  0
 13 33  1  0  0  0  0
 15 34  1  0  0  0  0
 16 35  1  0  0  0  0
M  END
$$$$
