C5H5NO2
APtclcactv12211716423D 0   0.00000     0.00000
 
 13 13  0  0  0  0  0  0  0  0999 V2000
    2.3563   -0.9583   -0.0412 O   0  0  0  0  0  0  0  0  0  0  0  0
    1.1795   -0.2832   -0.0205 C   0  0  0  0  0  0  0  0  0  0  0  0
    1.1837    1.0402   -0.0210 N   0  0  0  0  0  0  0  0  0  0  0  0
    0.0636    1.7392   -0.0013 C   0  0  0  0  0  0  0  0  0  0  0  0
   -1.1627    1.1105    0.0211 C   0  0  0  0  0  0  0  0  0  0  0  0
   -1.2132   -0.2830    0.0224 C   0  0  0  0  0  0  0  0  0  0  0  0
   -0.0152   -0.9873   -0.0048 C   0  0  0  0  0  0  0  0  0  0  0  0
   -2.4032   -0.9357    0.0446 O   0  0  0  0  0  0  0  0  0  0  0  0
    2.7131   -1.1537    0.8361 H   0  0  0  0  0  0  0  0  0  0  0  0
    0.1090    2.8183   -0.0025 H   0  0  0  0  0  0  0  0  0  0  0  0
   -2.0738    1.6902    0.0378 H   0  0  0  0  0  0  0  0  0  0  0  0
   -0.0146   -2.0673   -0.0046 H   0  0  0  0  0  0  0  0  0  0  0  0
   -2.7643   -1.1251   -0.8322 H   0  0  0  0  0  0  0  0  0  0  0  0
  1  2  1  0  0  0  0
  2  3  2  0  0  0  0
  3  4  1  0  0  0  0
  4  5  2  0  0  0  0
  5  6  1  0  0  0  0
  6  7  2  0  0  0  0
  2  7  1  0  0  0  0
  6  8  1  0  0  0  0
  1  9  1  0  0  0  0
  4 10  1  0  0  0  0
  5 11  1  0  0  0  0
  7 12  1  0  0  0  0
  8 13  1  0  0  0  0
M  END
$$$$
