C6H4N2O6
APtclcactv12211716493D 0   0.00000     0.00000
 
 18 18  0  0  0  0  0  0  0  0999 V2000
    2.2015   -0.8587    0.0156 N   0  3  0  0  0  0  0  0  0  0  0  0
    2.6846   -1.2250    1.0720 O   0  0  0  0  0  0  0  0  0  0  0  0
    2.6865   -1.2314   -1.0376 O   0  5  0  0  0  0  0  0  0  0  0  0
    1.0212    0.0346    0.0119 C   0  0  0  0  0  0  0  0  0  0  0  0
    1.1917    1.4102    0.0108 C   0  0  0  0  0  0  0  0  0  0  0  0
    2.4429    1.9404    0.0132 O   0  0  0  0  0  0  0  0  0  0  0  0
    0.0834    2.2457    0.0067 C   0  0  0  0  0  0  0  0  0  0  0  0
   -1.1890    1.7073    0.0043 C   0  0  0  0  0  0  0  0  0  0  0  0
   -1.3616    0.3361    0.0059 C   0  0  0  0  0  0  0  0  0  0  0  0
   -0.2567   -0.5033    0.0036 C   0  0  0  0  0  0  0  0  0  0  0  0
   -0.4271   -1.8516    0.0052 O   0  0  0  0  0  0  0  0  0  0  0  0
   -2.7261   -0.2375    0.0042 N   0  3  0  0  0  0  0  0  0  0  0  0
   -3.6963    0.4990    0.0015 O   0  0  0  0  0  0  0  0  0  0  0  0
   -2.8788   -1.4459    0.0056 O   0  5  0  0  0  0  0  0  0  0  0  0
    2.8072    2.0929   -0.8695 H   0  0  0  0  0  0  0  0  0  0  0  0
    0.2157    3.3175    0.0059 H   0  0  0  0  0  0  0  0  0  0  0  0
   -2.0501    2.3590    0.0015 H   0  0  0  0  0  0  0  0  0  0  0  0
   -0.4787   -2.2425   -0.8778 H   0  0  0  0  0  0  0  0  0  0  0  0
  1  2  2  0  0  0  0
  1  3  1  0  0  0  0
  1  4  1  0  0  0  0
  4  5  2  0  0  0  0
  5  6  1  0  0  0  0
  5  7  1  0  0  0  0
  7  8  2  0  0  0  0
  8  9  1  0  0  0  0
  9 10  2  0  0  0  0
  4 10  1  0  0  0  0
 10 11  1  0  0  0  0
  9 12  1  0  0  0  0
 12 13  2  0  0  0  0
 12 14  1  0  0  0  0
  6 15  1  0  0  0  0
  7 16  1  0  0  0  0
  8 17  1  0  0  0  0
 11 18  1  0  0  0  0
M  CHG  4   1   1   3  -1  12   1  14  -1
M  END
$$$$
