C11H16N2O3
APtclcactv12211717353D 0   0.00000     0.00000
 
 32 33  0  0  0  0  0  0  0  0999 V2000
   -0.7588   -1.1832    0.2992 C   0  0  0  0  0  0  0  0  0  0  0  0
   -2.1104   -1.2209    0.3181 N   0  0  0  0  0  0  0  0  0  0  0  0
   -2.8483   -0.1339    0.0648 C   0  0  0  0  0  0  0  0  0  0  0  0
   -2.3612    1.0773   -0.2284 N   0  0  0  0  0  0  0  0  0  0  0  0
   -1.0307    1.3121   -0.2938 C   0  0  0  0  0  0  0  0  0  0  0  0
   -0.1107    0.1449   -0.0213 C   0  0  0  0  0  0  0  0  0  0  0  0
    0.7924    0.5013    1.1633 C   0  0  0  0  0  0  0  0  0  0  0  0
    1.8435    1.5219    0.7233 C   0  0  0  0  0  0  0  0  0  0  0  0
    3.2393    0.8898    0.7814 C   0  0  0  0  0  0  0  0  0  0  0  0
    3.4424   -0.0404   -0.4113 C   0  0  0  0  0  0  0  0  0  0  0  0
    2.6580   -1.3265   -0.1371 C   0  0  0  0  0  0  0  0  0  0  0  0
    1.4909   -1.4244   -1.1126 C   0  0  0  0  0  0  0  0  0  0  0  0
    0.7874   -0.0690   -1.2357 C   0  0  0  0  0  0  0  0  0  0  0  0
   -0.5951    2.4116   -0.5604 O   0  0  0  0  0  0  0  0  0  0  0  0
   -4.0563   -0.2565    0.1035 O   0  0  0  0  0  0  0  0  0  0  0  0
   -0.0952   -2.1703    0.5340 O   0  0  0  0  0  0  0  0  0  0  0  0
   -2.5567   -2.0581    0.5204 H   0  0  0  0  0  0  0  0  0  0  0  0
   -2.9783    1.8060   -0.3987 H   0  0  0  0  0  0  0  0  0  0  0  0
    0.1882    0.9258    1.9650 H   0  0  0  0  0  0  0  0  0  0  0  0
    1.2899   -0.3991    1.5236 H   0  0  0  0  0  0  0  0  0  0  0  0
    1.6330    1.8409   -0.2975 H   0  0  0  0  0  0  0  0  0  0  0  0
    1.8095    2.3856    1.3874 H   0  0  0  0  0  0  0  0  0  0  0  0
    3.9935    1.6764    0.7588 H   0  0  0  0  0  0  0  0  0  0  0  0
    3.3398    0.3201    1.7053 H   0  0  0  0  0  0  0  0  0  0  0  0
    3.0687    0.4345   -1.3184 H   0  0  0  0  0  0  0  0  0  0  0  0
    4.5018   -0.2704   -0.5247 H   0  0  0  0  0  0  0  0  0  0  0  0
    3.3140   -2.1872   -0.2676 H   0  0  0  0  0  0  0  0  0  0  0  0
    2.2776   -1.3095    0.8842 H   0  0  0  0  0  0  0  0  0  0  0  0
    1.8634   -1.7273   -2.0912 H   0  0  0  0  0  0  0  0  0  0  0  0
    0.7804   -2.1678   -0.7513 H   0  0  0  0  0  0  0  0  0  0  0  0
    0.1829   -0.0538   -2.1426 H   0  0  0  0  0  0  0  0  0  0  0  0
    1.5327    0.7250   -1.2815 H   0  0  0  0  0  0  0  0  0  0  0  0
  1  2  1  0  0  0  0
  2  3  1  0  0  0  0
  3  4  1  0  0  0  0
  4  5  1  0  0  0  0
  5  6  1  0  0  0  0
  1  6  1  0  0  0  0
  6  7  1  0  0  0  0
  7  8  1  0  0  0  0
  8  9  1  0  0  0  0
  9 10  1  0  0  0  0
 10 11  1  0  0  0  0
 11 12  1  0  0  0  0
 12 13  1  0  0  0  0
  6 13  1  0  0  0  0
  5 14  2  0  0  0  0
  3 15  2  0  0  0  0
  1 16  2  0  0  0  0
  2 17  1  0  0  0  0
  4 18  1  0  0  0  0
  7 19  1  0  0  0  0
  7 20  1  0  0  0  0
  8 21  1  0  0  0  0
  8 22  1  0  0  0  0
  9 23  1  0  0  0  0
  9 24  1  0  0  0  0
 10 25  1  0  0  0  0
 10 26  1  0  0  0  0
 11 27  1  0  0  0  0
 11 28  1  0  0  0  0
 12 29  1  0  0  0  0
 12 30  1  0  0  0  0
 13 31  1  0  0  0  0
 13 32  1  0  0  0  0
M  END
$$$$
