C11H10Cl2O3
APtclcactv12211717323D 0   0.00000     0.00000
 
 26 26  0  0  0  0  0  0  0  0999 V2000
   -5.0782   -0.0010    0.1594 C   0  0  0  0  0  0  0  0  0  0  0  0
   -6.1922    1.0130    0.2036 C   0  0  0  0  0  0  0  0  0  0  0  0
   -7.2347    0.8752   -0.5777 C   0  0  0  0  0  0  0  0  0  0  0  0
   -3.7990    0.6858    0.1429 O   0  0  0  0  0  0  0  0  0  0  0  0
   -2.6970   -0.0795    0.1036 C   0  0  0  0  0  0  0  0  0  0  0  0
   -1.3339    0.5629    0.0844 C   0  0  0  0  0  0  0  0  0  0  0  0
   -0.3293   -0.4526    0.0426 O   0  0  0  0  0  0  0  0  0  0  0  0
    0.9656   -0.0392    0.0207 C   0  0  0  0  0  0  0  0  0  0  0  0
    1.9924   -0.9723   -0.0200 C   0  0  0  0  0  0  0  0  0  0  0  0
    3.3085   -0.5494   -0.0427 C   0  0  0  0  0  0  0  0  0  0  0  0
    3.6017    0.8025   -0.0248 C   0  0  0  0  0  0  0  0  0  0  0  0
    2.5790    1.7338    0.0157 C   0  0  0  0  0  0  0  0  0  0  0  0
    1.2624    1.3156    0.0332 C   0  0  0  0  0  0  0  0  0  0  0  0
    5.2549    1.3314   -0.0528 Cl  0  0  0  0  0  0  0  0  0  0  0  0
    1.6245   -2.6687   -0.0418 Cl  0  0  0  0  0  0  0  0  0  0  0  0
   -2.7978   -1.2833    0.0836 O   0  0  0  0  0  0  0  0  0  0  0  0
   -5.1352   -0.6419    1.0392 H   0  0  0  0  0  0  0  0  0  0  0  0
   -5.1758   -0.6090   -0.7400 H   0  0  0  0  0  0  0  0  0  0  0  0
   -6.1312    1.8532    0.8794 H   0  0  0  0  0  0  0  0  0  0  0  0
   -8.0330    1.6019   -0.5460 H   0  0  0  0  0  0  0  0  0  0  0  0
   -7.2958    0.0350   -1.2535 H   0  0  0  0  0  0  0  0  0  0  0  0
   -1.2443    1.1989   -0.7963 H   0  0  0  0  0  0  0  0  0  0  0  0
   -1.2037    1.1660    0.9829 H   0  0  0  0  0  0  0  0  0  0  0  0
    4.1081   -1.2747   -0.0740 H   0  0  0  0  0  0  0  0  0  0  0  0
    2.8102    2.7887    0.0296 H   0  0  0  0  0  0  0  0  0  0  0  0
    0.4648    2.0431    0.0649 H   0  0  0  0  0  0  0  0  0  0  0  0
  1  2  1  0  0  0  0
  2  3  2  0  0  0  0
  1  4  1  0  0  0  0
  4  5  1  0  0  0  0
  5  6  1  0  0  0  0
  6  7  1  0  0  0  0
  7  8  1  0  0  0  0
  8  9  2  0  0  0  0
  9 10  1  0  0  0  0
 10 11  2  0  0  0  0
 11 12  1  0  0  0  0
 12 13  2  0  0  0  0
  8 13  1  0  0  0  0
 11 14  1  0  0  0  0
  9 15  1  0  0  0  0
  5 16  2  0  0  0  0
  1 17  1  0  0  0  0
  1 18  1  0  0  0  0
  2 19  1  0  0  0  0
  3 20  1  0  0  0  0
  3 21  1  0  0  0  0
  6 22  1  0  0  0  0
  6 23  1  0  0  0  0
 10 24  1  0  0  0  0
 12 25  1  0  0  0  0
 13 26  1  0  0  0  0
M  END
$$$$
