C15H12Cl2O3
APtclcactv12211717063D 0   0.00000     0.00000
 
 32 33  0  0  0  0  0  0  0  0999 V2000
   -3.7704   -0.9739   -0.0007 C   0  0  0  0  0  0  0  0  0  0  0  0
   -5.0233   -0.1365   -0.0002 C   0  0  0  0  0  0  0  0  0  0  0  0
   -5.5978    0.2485   -1.1971 C   0  0  0  0  0  0  0  0  0  0  0  0
   -6.7471    1.0167   -1.1965 C   0  0  0  0  0  0  0  0  0  0  0  0
   -7.3220    1.3995    0.0009 C   0  0  0  0  0  0  0  0  0  0  0  0
   -6.7480    1.0137    1.1978 C   0  0  0  0  0  0  0  0  0  0  0  0
   -5.6012    0.2419    1.1972 C   0  0  0  0  0  0  0  0  0  0  0  0
   -2.6073   -0.1048    0.0000 O   0  0  0  0  0  0  0  0  0  0  0  0
   -1.4032   -0.6980   -0.0003 C   0  0  0  0  0  0  0  0  0  0  0  0
   -0.1505    0.1397    0.0004 C   0  0  0  0  0  0  0  0  0  0  0  0
    0.9944   -0.7155   -0.0002 O   0  0  0  0  0  0  0  0  0  0  0  0
    2.2138   -0.1144    0.0004 C   0  0  0  0  0  0  0  0  0  0  0  0
    3.3684   -0.8848   -0.0001 C   0  0  0  0  0  0  0  0  0  0  0  0
    4.6073   -0.2711   -0.0000 C   0  0  0  0  0  0  0  0  0  0  0  0
    4.6960    1.1095    0.0006 C   0  0  0  0  0  0  0  0  0  0  0  0
    3.5457    1.8787    0.0011 C   0  0  0  0  0  0  0  0  0  0  0  0
    2.3058    1.2695   -0.0043 C   0  0  0  0  0  0  0  0  0  0  0  0
    6.2527    1.8780    0.0013 Cl  0  0  0  0  0  0  0  0  0  0  0  0
    3.2570   -2.6172   -0.0003 Cl  0  0  0  0  0  0  0  0  0  0  0  0
   -1.3237   -1.9036   -0.0013 O   0  0  0  0  0  0  0  0  0  0  0  0
   -3.7539   -1.6037    0.8888 H   0  0  0  0  0  0  0  0  0  0  0  0
   -3.7538   -1.6023   -0.8912 H   0  0  0  0  0  0  0  0  0  0  0  0
   -5.1486   -0.0506   -2.1326 H   0  0  0  0  0  0  0  0  0  0  0  0
   -7.1955    1.3181   -2.1316 H   0  0  0  0  0  0  0  0  0  0  0  0
   -8.2195    2.0003    0.0013 H   0  0  0  0  0  0  0  0  0  0  0  0
   -7.1970    1.3131    2.1333 H   0  0  0  0  0  0  0  0  0  0  0  0
   -5.1527   -0.0595    2.1323 H   0  0  0  0  0  0  0  0  0  0  0  0
   -0.1340    0.7695   -0.8891 H   0  0  0  0  0  0  0  0  0  0  0  0
   -0.1341    0.7681    0.8909 H   0  0  0  0  0  0  0  0  0  0  0  0
    5.5062   -0.8698   -0.0001 H   0  0  0  0  0  0  0  0  0  0  0  0
    3.6174    2.9563    0.0016 H   0  0  0  0  0  0  0  0  0  0  0  0
    1.4085    1.8706   -0.0039 H   0  0  0  0  0  0  0  0  0  0  0  0
  1  2  1  0  0  0  0
  2  3  2  0  0  0  0
  3  4  1  0  0  0  0
  4  5  2  0  0  0  0
  5  6  1  0  0  0  0
  6  7  2  0  0  0  0
  2  7  1  0  0  0  0
  1  8  1  0  0  0  0
  8  9  1  0  0  0  0
  9 10  1  0  0  0  0
 10 11  1  0  0  0  0
 11 12  1  0  0  0  0
 12 13  2  0  0  0  0
 13 14  1  0  0  0  0
 14 15  2  0  0  0  0
 15 16  1  0  0  0  0
 16 17  2  0  0  0  0
 12 17  1  0  0  0  0
 15 18  1  0  0  0  0
 13 19  1  0  0  0  0
  9 20  2  0  0  0  0
  1 21  1  0  0  0  0
  1 22  1  0  0  0  0
  3 23  1  0  0  0  0
  4 24  1  0  0  0  0
  5 25  1  0  0  0  0
  6 26  1  0  0  0  0
  7 27  1  0  0  0  0
 10 28  1  0  0  0  0
 10 29  1  0  0  0  0
 14 30  1  0  0  0  0
 16 31  1  0  0  0  0
 17 32  1  0  0  0  0
M  END
$$$$
