C12H8Cl2
APtclcactv12111704553D 0   0.00000     0.00000
 
 22 23  0  0  0  0  0  0  0  0999 V2000
    0.3765   -2.2591   -0.3312 Cl  0  0  0  0  0  0  0  0  0  0  0  0
   -0.5218   -0.7894   -0.1150 C   0  0  0  0  0  0  0  0  0  0  0  0
    0.1493    0.4201    0.0611 C   0  0  0  0  0  0  0  0  0  0  0  0
   -0.5779    1.5962    0.2337 C   0  0  0  0  0  0  0  0  0  0  0  0
   -1.9572    1.5590    0.2295 C   0  0  0  0  0  0  0  0  0  0  0  0
   -2.6196    0.3557    0.0543 C   0  0  0  0  0  0  0  0  0  0  0  0
   -1.9030   -0.8149   -0.1228 C   0  0  0  0  0  0  0  0  0  0  0  0
   -4.3552    0.3164    0.0501 Cl  0  0  0  0  0  0  0  0  0  0  0  0
    1.6326    0.4546    0.0653 C   0  0  0  0  0  0  0  0  0  0  0  0
    2.3130    1.3707   -0.7345 C   0  0  0  0  0  0  0  0  0  0  0  0
    3.6929    1.3984   -0.7267 C   0  0  0  0  0  0  0  0  0  0  0  0
    4.4003    0.5190    0.0730 C   0  0  0  0  0  0  0  0  0  0  0  0
    3.7301   -0.3924    0.8689 C   0  0  0  0  0  0  0  0  0  0  0  0
    2.3503   -0.4250    0.8733 C   0  0  0  0  0  0  0  0  0  0  0  0
   -0.0627    2.5354    0.3708 H   0  0  0  0  0  0  0  0  0  0  0  0
   -2.5212    2.4701    0.3635 H   0  0  0  0  0  0  0  0  0  0  0  0
   -2.4242   -1.7509   -0.2594 H   0  0  0  0  0  0  0  0  0  0  0  0
    1.7616    2.0574   -1.3596 H   0  0  0  0  0  0  0  0  0  0  0  0
    4.2212    2.1077   -1.3465 H   0  0  0  0  0  0  0  0  0  0  0  0
    5.4800    0.5439    0.0758 H   0  0  0  0  0  0  0  0  0  0  0  0
    4.2874   -1.0766    1.4914 H   0  0  0  0  0  0  0  0  0  0  0  0
    1.8280   -1.1368    1.4954 H   0  0  0  0  0  0  0  0  0  0  0  0
  1  2  1  0  0  0  0
  2  3  2  0  0  0  0
  3  4  1  0  0  0  0
  4  5  2  0  0  0  0
  5  6  1  0  0  0  0
  6  7  2  0  0  0  0
  2  7  1  0  0  0  0
  6  8  1  0  0  0  0
  3  9  1  0  0  0  0
  9 10  2  0  0  0  0
 10 11  1  0  0  0  0
 11 12  2  0  0  0  0
 12 13  1  0  0  0  0
 13 14  2  0  0  0  0
  9 14  1  0  0  0  0
  4 15  1  0  0  0  0
  5 16  1  0  0  0  0
  7 17  1  0  0  0  0
 10 18  1  0  0  0  0
 11 19  1  0  0  0  0
 12 20  1  0  0  0  0
 13 21  1  0  0  0  0
 14 22  1  0  0  0  0
M  END
$$$$
