C24H12Cl4N2O5
APtclcactv12111704543D 0   0.00000     0.00000
 
 47 50  0  0  0  0  0  0  0  0999 V2000
    1.7075   -0.8937   -1.2859 Cl  0  0  0  0  0  0  0  0  0  0  0  0
    2.6382   -0.8665    0.1793 C   0  0  0  0  0  0  0  0  0  0  0  0
    2.5426    0.2205    1.0477 C   0  0  0  0  0  0  0  0  0  0  0  0
    3.2924    0.2356    2.2226 C   0  0  0  0  0  0  0  0  0  0  0  0
    4.1246   -0.8237    2.5210 C   0  0  0  0  0  0  0  0  0  0  0  0
    4.2164   -1.9009    1.6558 C   0  0  0  0  0  0  0  0  0  0  0  0
    3.4705   -1.9241    0.4902 C   0  0  0  0  0  0  0  0  0  0  0  0
    5.2661   -3.2298    2.0375 Cl  0  0  0  0  0  0  0  0  0  0  0  0
    1.6468    1.3568    0.7220 C   0  0  0  0  0  0  0  0  0  0  0  0
    0.2592    1.2003    0.7945 C   0  0  0  0  0  0  0  0  0  0  0  0
   -0.5704    2.2676    0.4882 C   0  0  0  0  0  0  0  0  0  0  0  0
   -0.0268    3.4813    0.1129 C   0  0  0  0  0  0  0  0  0  0  0  0
    1.3462    3.6389    0.0399 C   0  0  0  0  0  0  0  0  0  0  0  0
    2.1841    2.5864    0.3480 C   0  0  0  0  0  0  0  0  0  0  0  0
    1.9182    4.9428   -0.3642 N   0  3  0  0  0  0  0  0  0  0  0  0
    1.1809    5.8747   -0.6317 O   0  0  0  0  0  0  0  0  0  0  0  0
    3.1263    5.0840   -0.4292 O   0  5  0  0  0  0  0  0  0  0  0  0
   -0.2738    0.0066    1.1632 O   0  0  0  0  0  0  0  0  0  0  0  0
   -1.6176   -0.0616    1.3487 C   0  0  0  0  0  0  0  0  0  0  0  0
   -2.4628   -0.3276    0.2670 C   0  0  0  0  0  0  0  0  0  0  0  0
   -3.8396   -0.3961    0.4674 C   0  0  0  0  0  0  0  0  0  0  0  0
   -4.3623   -0.2015    1.7298 C   0  0  0  0  0  0  0  0  0  0  0  0
   -3.5234    0.0621    2.7985 C   0  0  0  0  0  0  0  0  0  0  0  0
   -2.1558    0.1266    2.6121 C   0  0  0  0  0  0  0  0  0  0  0  0
   -5.8253   -0.2746    1.9414 N   0  3  0  0  0  0  0  0  0  0  0  0
   -6.5657   -0.5060    1.0023 O   0  0  0  0  0  0  0  0  0  0  0  0
   -6.2890   -0.1032    3.0546 O   0  5  0  0  0  0  0  0  0  0  0  0
   -1.8959   -0.5355   -1.0877 C   0  0  0  0  0  0  0  0  0  0  0  0
   -1.1428   -1.6764   -1.3637 C   0  0  0  0  0  0  0  0  0  0  0  0
   -0.6177   -1.8648   -2.6273 C   0  0  0  0  0  0  0  0  0  0  0  0
   -0.8379   -0.9236   -3.6178 C   0  0  0  0  0  0  0  0  0  0  0  0
   -1.5851    0.2106   -3.3483 C   0  0  0  0  0  0  0  0  0  0  0  0
   -2.1189    0.4059   -2.0911 C   0  0  0  0  0  0  0  0  0  0  0  0
   -0.1744   -1.1656   -5.2037 Cl  0  0  0  0  0  0  0  0  0  0  0  0
   -0.8652   -2.8568   -0.1215 Cl  0  0  0  0  0  0  0  0  0  0  0  0
    3.2222    1.0752    2.8982 H   0  0  0  0  0  0  0  0  0  0  0  0
    4.7061   -0.8124    3.4310 H   0  0  0  0  0  0  0  0  0  0  0  0
    3.5453   -2.7668   -0.1811 H   0  0  0  0  0  0  0  0  0  0  0  0
   -1.6426    2.1505    0.5427 H   0  0  0  0  0  0  0  0  0  0  0  0
   -0.6764    4.3106   -0.1250 H   0  0  0  0  0  0  0  0  0  0  0  0
    3.2550    2.7132    0.2899 H   0  0  0  0  0  0  0  0  0  0  0  0
   -4.4974   -0.6009   -0.3643 H   0  0  0  0  0  0  0  0  0  0  0  0
   -3.9394    0.2136    3.7836 H   0  0  0  0  0  0  0  0  0  0  0  0
   -1.5062    0.3326    3.4500 H   0  0  0  0  0  0  0  0  0  0  0  0
   -0.0342   -2.7478   -2.8426 H   0  0  0  0  0  0  0  0  0  0  0  0
   -1.7535    0.9420   -4.1248 H   0  0  0  0  0  0  0  0  0  0  0  0
   -2.7018    1.2908   -1.8825 H   0  0  0  0  0  0  0  0  0  0  0  0
  1  2  1  0  0  0  0
  2  3  2  0  0  0  0
  3  4  1  0  0  0  0
  4  5  2  0  0  0  0
  5  6  1  0  0  0  0
  6  7  2  0  0  0  0
  2  7  1  0  0  0  0
  6  8  1  0  0  0  0
  3  9  1  0  0  0  0
  9 10  2  0  0  0  0
 10 11  1  0  0  0  0
 11 12  2  0  0  0  0
 12 13  1  0  0  0  0
 13 14  2  0  0  0  0
  9 14  1  0  0  0  0
 13 15  1  0  0  0  0
 15 16  2  0  0  0  0
 15 17  1  0  0  0  0
 10 18  1  0  0  0  0
 18 19  1  0  0  0  0
 19 20  2  0  0  0  0
 20 21  1  0  0  0  0
 21 22  2  0  0  0  0
 22 23  1  0  0  0  0
 23 24  2  0  0  0  0
 19 24  1  0  0  0  0
 22 25  1  0  0  0  0
 25 26  2  0  0  0  0
 25 27  1  0  0  0  0
 20 28  1  0  0  0  0
 28 29  2  0  0  0  0
 29 30  1  0  0  0  0
 30 31  2  0  0  0  0
 31 32  1  0  0  0  0
 32 33  2  0  0  0  0
 28 33  1  0  0  0  0
 31 34  1  0  0  0  0
 29 35  1  0  0  0  0
  4 36  1  0  0  0  0
  5 37  1  0  0  0  0
  7 38  1  0  0  0  0
 11 39  1  0  0  0  0
 12 40  1  0  0  0  0
 14 41  1  0  0  0  0
 21 42  1  0  0  0  0
 23 43  1  0  0  0  0
 24 44  1  0  0  0  0
 30 45  1  0  0  0  0
 32 46  1  0  0  0  0
 33 47  1  0  0  0  0
M  CHG  4  15   1  17  -1  25   1  27  -1
M  END
$$$$
