C5H7NO4S
APtclcactv12211716423D 0   0.00000     0.00000
 
 18 18  0  0  0  0  0  0  0  0999 V2000
   -0.7647    1.7066    0.0636 S   0  0  0  0  0  0  0  0  0  0  0  0
   -1.1414    0.0574   -0.6509 C   0  0  0  0  0  0  0  0  0  0  0  0
    0.0728   -0.7256   -0.2872 N   0  0  0  0  0  0  0  0  0  0  0  0
    1.2652    0.1063   -0.5387 C   0  0  0  0  0  0  0  0  0  0  0  0
    1.0579    1.5011    0.0951 C   0  0  0  0  0  0  0  0  0  0  0  0
    2.4754   -0.5503    0.0741 C   0  0  0  0  0  0  0  0  0  0  0  0
    2.3375   -1.3956    0.9263 O   0  0  0  0  0  0  0  0  0  0  0  0
    3.7064   -0.1959   -0.3269 O   0  0  0  0  0  0  0  0  0  0  0  0
   -2.3726   -0.5348   -0.0149 C   0  0  0  0  0  0  0  0  0  0  0  0
   -2.8729   -0.0000    0.9461 O   0  0  0  0  0  0  0  0  0  0  0  0
   -2.9135   -1.6564   -0.5162 O   0  0  0  0  0  0  0  0  0  0  0  0
   -1.2537    0.1195   -1.7333 H   0  0  0  0  0  0  0  0  0  0  0  0
    0.0361   -1.0230    0.6762 H   0  0  0  0  0  0  0  0  0  0  0  0
    1.4146    0.2131   -1.6131 H   0  0  0  0  0  0  0  0  0  0  0  0
    1.5426    2.2721   -0.5038 H   0  0  0  0  0  0  0  0  0  0  0  0
    1.4295    1.5176    1.1196 H   0  0  0  0  0  0  0  0  0  0  0  0
    4.4517   -0.6448    0.0951 H   0  0  0  0  0  0  0  0  0  0  0  0
   -3.7028   -1.9986   -0.0745 H   0  0  0  0  0  0  0  0  0  0  0  0
  1  2  1  0  0  0  0
  2  3  1  0  0  0  0
  3  4  1  0  0  0  0
  4  5  1  0  0  0  0
  1  5  1  0  0  0  0
  4  6  1  0  0  0  0
  6  7  2  0  0  0  0
  6  8  1  0  0  0  0
  2  9  1  0  0  0  0
  9 10  2  0  0  0  0
  9 11  1  0  0  0  0
  2 12  1  0  0  0  0
  3 13  1  0  0  0  0
  4 14  1  0  0  0  0
  5 15  1  0  0  0  0
  5 16  1  0  0  0  0
  8 17  1  0  0  0  0
 11 18  1  0  0  0  0
M  END
$$$$
