C13H16Cl2O3
APtclcactv12071713263D 0   0.00000     0.00000
 
 34 34  0  0  0  0  0  0  0  0999 V2000
   -4.1000   -0.2105   -0.0001 C   0  0  0  0  0  0  0  0  0  0  0  0
   -5.2654    0.7808    0.0005 C   0  0  0  0  0  0  0  0  0  0  0  0
   -6.5885    0.0125   -0.0001 C   0  0  0  0  0  0  0  0  0  0  0  0
   -7.7539    1.0038    0.0004 C   0  0  0  0  0  0  0  0  0  0  0  0
   -9.0770    0.2354   -0.0001 C   0  0  0  0  0  0  0  0  0  0  0  0
   -2.8444    0.5187    0.0005 O   0  0  0  0  0  0  0  0  0  0  0  0
   -1.7168   -0.2095    0.0001 C   0  0  0  0  0  0  0  0  0  0  0  0
   -0.3758    0.4781    0.0006 C   0  0  0  0  0  0  0  0  0  0  0  0
    0.6628   -0.5034    0.0001 O   0  0  0  0  0  0  0  0  0  0  0  0
    1.9434   -0.0470    0.0004 C   0  0  0  0  0  0  0  0  0  0  0  0
    3.0014   -0.9455   -0.0000 C   0  0  0  0  0  0  0  0  0  0  0  0
    4.3028   -0.4788   -0.0002 C   0  0  0  0  0  0  0  0  0  0  0  0
    4.5503    0.8823    0.0002 C   0  0  0  0  0  0  0  0  0  0  0  0
    3.4964    1.7791    0.0007 C   0  0  0  0  0  0  0  0  0  0  0  0
    2.1944    1.3170   -0.0045 C   0  0  0  0  0  0  0  0  0  0  0  0
    6.1852    1.4661    0.0006 Cl  0  0  0  0  0  0  0  0  0  0  0  0
    2.6908   -2.6535    0.0001 Cl  0  0  0  0  0  0  0  0  0  0  0  0
   -1.7769   -1.4162   -0.0006 O   0  0  0  0  0  0  0  0  0  0  0  0
   -4.1562   -0.8378    0.8895 H   0  0  0  0  0  0  0  0  0  0  0  0
   -4.1561   -0.8367   -0.8904 H   0  0  0  0  0  0  0  0  0  0  0  0
   -5.2093    1.4071    0.8908 H   0  0  0  0  0  0  0  0  0  0  0  0
   -5.2092    1.4082   -0.8891 H   0  0  0  0  0  0  0  0  0  0  0  0
   -6.6446   -0.6138   -0.8904 H   0  0  0  0  0  0  0  0  0  0  0  0
   -6.6447   -0.6149    0.8895 H   0  0  0  0  0  0  0  0  0  0  0  0
   -7.6978    1.6300    0.8908 H   0  0  0  0  0  0  0  0  0  0  0  0
   -7.6977    1.6311   -0.8892 H   0  0  0  0  0  0  0  0  0  0  0  0
   -9.9073    0.9416    0.0003 H   0  0  0  0  0  0  0  0  0  0  0  0
   -9.1331   -0.3909   -0.8905 H   0  0  0  0  0  0  0  0  0  0  0  0
   -9.1332   -0.3919    0.8895 H   0  0  0  0  0  0  0  0  0  0  0  0
   -0.2868    1.1016   -0.8890 H   0  0  0  0  0  0  0  0  0  0  0  0
   -0.2869    1.1006    0.8910 H   0  0  0  0  0  0  0  0  0  0  0  0
    5.1266   -1.1772   -0.0002 H   0  0  0  0  0  0  0  0  0  0  0  0
    3.6919    2.8413    0.0010 H   0  0  0  0  0  0  0  0  0  0  0  0
    1.3725    2.0176   -0.0041 H   0  0  0  0  0  0  0  0  0  0  0  0
  1  2  1  0  0  0  0
  2  3  1  0  0  0  0
  3  4  1  0  0  0  0
  4  5  1  0  0  0  0
  1  6  1  0  0  0  0
  6  7  1  0  0  0  0
  7  8  1  0  0  0  0
  8  9  1  0  0  0  0
  9 10  1  0  0  0  0
 10 11  2  0  0  0  0
 11 12  1  0  0  0  0
 12 13  2  0  0  0  0
 13 14  1  0  0  0  0
 14 15  2  0  0  0  0
 10 15  1  0  0  0  0
 13 16  1  0  0  0  0
 11 17  1  0  0  0  0
  7 18  2  0  0  0  0
  1 19  1  0  0  0  0
  1 20  1  0  0  0  0
  2 21  1  0  0  0  0
  2 22  1  0  0  0  0
  3 23  1  0  0  0  0
  3 24  1  0  0  0  0
  4 25  1  0  0  0  0
  4 26  1  0  0  0  0
  5 27  1  0  0  0  0
  5 28  1  0  0  0  0
  5 29  1  0  0  0  0
  8 30  1  0  0  0  0
  8 31  1  0  0  0  0
 12 32  1  0  0  0  0
 14 33  1  0  0  0  0
 15 34  1  0  0  0  0
M  END
$$$$
