C7H6N2O5
APtclcactv12151716153D 0   0.00000     0.00000
 
 20 20  0  0  0  0  0  0  0  0999 V2000
    1.7023   -1.6204    0.0016 N   0  3  0  0  0  0  0  0  0  0  0  0
    1.3201   -2.7768    0.0020 O   0  0  0  0  0  0  0  0  0  0  0  0
    2.8950   -1.3732   -0.0035 O   0  5  0  0  0  0  0  0  0  0  0  0
    0.7175   -0.5154    0.0010 C   0  0  0  0  0  0  0  0  0  0  0  0
    1.1522    0.8019    0.0005 C   0  0  0  0  0  0  0  0  0  0  0  0
    0.2265    1.8355   -0.0005 C   0  0  0  0  0  0  0  0  0  0  0  0
   -1.1250    1.5506   -0.0010 C   0  0  0  0  0  0  0  0  0  0  0  0
   -1.5558    0.2365   -0.0000 C   0  0  0  0  0  0  0  0  0  0  0  0
   -0.6355   -0.7951   -0.0048 C   0  0  0  0  0  0  0  0  0  0  0  0
   -3.0048   -0.0659    0.0004 N   0  3  0  0  0  0  0  0  0  0  0  0
   -3.8165    0.8422   -0.0000 O   0  0  0  0  0  0  0  0  0  0  0  0
   -3.3854   -1.2230    0.0013 O   0  5  0  0  0  0  0  0  0  0  0  0
    2.4825    1.0796    0.0015 O   0  0  0  0  0  0  0  0  0  0  0  0
    2.8574    2.4586    0.0009 C   0  0  0  0  0  0  0  0  0  0  0  0
    0.5625    2.8619   -0.0005 H   0  0  0  0  0  0  0  0  0  0  0  0
   -1.8459    2.3548   -0.0017 H   0  0  0  0  0  0  0  0  0  0  0  0
   -0.9745   -1.8205   -0.0040 H   0  0  0  0  0  0  0  0  0  0  0  0
    2.4576    2.9434   -0.8898 H   0  0  0  0  0  0  0  0  0  0  0  0
    2.4561    2.9446    0.8902 H   0  0  0  0  0  0  0  0  0  0  0  0
    3.9444    2.5396    0.0017 H   0  0  0  0  0  0  0  0  0  0  0  0
  1  2  2  0  0  0  0
  1  3  1  0  0  0  0
  1  4  1  0  0  0  0
  4  5  2  0  0  0  0
  5  6  1  0  0  0  0
  6  7  2  0  0  0  0
  7  8  1  0  0  0  0
  8  9  2  0  0  0  0
  4  9  1  0  0  0  0
  8 10  1  0  0  0  0
 10 11  2  0  0  0  0
 10 12  1  0  0  0  0
  5 13  1  0  0  0  0
 13 14  1  0  0  0  0
  6 15  1  0  0  0  0
  7 16  1  0  0  0  0
  9 17  1  0  0  0  0
 14 18  1  0  0  0  0
 14 19  1  0  0  0  0
 14 20  1  0  0  0  0
M  CHG  4   1   1   3  -1  10   1  12  -1
M  END
$$$$
