C10H12N2O5
APtclcactv12211717233D 0   0.00000     0.00000
 
 29 29  0  0  0  0  0  0  0  0999 V2000
   -2.3399    1.9158   -0.0865 N   0  3  0  0  0  0  0  0  0  0  0  0
   -3.5145    1.6065   -0.1774 O   0  0  0  0  0  0  0  0  0  0  0  0
   -2.0208    3.0906   -0.0473 O   0  5  0  0  0  0  0  0  0  0  0  0
   -1.3008    0.8639   -0.0175 C   0  0  0  0  0  0  0  0  0  0  0  0
    0.0370    1.2155    0.0861 C   0  0  0  0  0  0  0  0  0  0  0  0
    1.0086    0.2271    0.1511 C   0  0  0  0  0  0  0  0  0  0  0  0
    0.6418   -1.1040    0.1125 C   0  0  0  0  0  0  0  0  0  0  0  0
   -0.6926   -1.4519    0.0087 C   0  0  0  0  0  0  0  0  0  0  0  0
   -1.6630   -0.4690   -0.0505 C   0  0  0  0  0  0  0  0  0  0  0  0
   -1.0829   -2.8791   -0.0334 N   0  3  0  0  0  0  0  0  0  0  0  0
   -0.2291   -3.7459    0.0232 O   0  0  0  0  0  0  0  0  0  0  0  0
   -2.2579   -3.1867   -0.1248 O   0  5  0  0  0  0  0  0  0  0  0  0
    2.4630    0.6055    0.2631 C   0  0  0  0  0  0  0  0  0  0  0  0
    3.0429    0.0255    1.5548 C   0  0  0  0  0  0  0  0  0  0  0  0
    3.2297    0.0454   -0.9366 C   0  0  0  0  0  0  0  0  0  0  0  0
    4.6790    0.5334   -0.8887 C   0  0  0  0  0  0  0  0  0  0  0  0
    0.3955    2.5258    0.1234 O   0  0  0  0  0  0  0  0  0  0  0  0
    1.3977   -1.8737    0.1630 H   0  0  0  0  0  0  0  0  0  0  0  0
   -2.7045   -0.7433   -0.1315 H   0  0  0  0  0  0  0  0  0  0  0  0
    2.5557    1.6915    0.2788 H   0  0  0  0  0  0  0  0  0  0  0  0
    2.9502   -1.0604    1.5391 H   0  0  0  0  0  0  0  0  0  0  0  0
    4.0948    0.2992    1.6358 H   0  0  0  0  0  0  0  0  0  0  0  0
    2.4967    0.4245    2.4095 H   0  0  0  0  0  0  0  0  0  0  0  0
    3.2117   -1.0439   -0.9029 H   0  0  0  0  0  0  0  0  0  0  0  0
    2.7613    0.3881   -1.8593 H   0  0  0  0  0  0  0  0  0  0  0  0
    5.1474    0.1907    0.0339 H   0  0  0  0  0  0  0  0  0  0  0  0
    5.2252    0.1343   -1.7434 H   0  0  0  0  0  0  0  0  0  0  0  0
    4.6969    1.6227   -0.9224 H   0  0  0  0  0  0  0  0  0  0  0  0
    0.4328    2.8981    1.0151 H   0  0  0  0  0  0  0  0  0  0  0  0
  1  2  2  0  0  0  0
  1  3  1  0  0  0  0
  1  4  1  0  0  0  0
  4  5  2  0  0  0  0
  5  6  1  0  0  0  0
  6  7  2  0  0  0  0
  7  8  1  0  0  0  0
  8  9  2  0  0  0  0
  4  9  1  0  0  0  0
  8 10  1  0  0  0  0
 10 11  2  0  0  0  0
 10 12  1  0  0  0  0
  6 13  1  0  0  0  0
 13 14  1  0  0  0  0
 13 15  1  0  0  0  0
 15 16  1  0  0  0  0
  5 17  1  0  0  0  0
  7 18  1  0  0  0  0
  9 19  1  0  0  0  0
 13 20  1  0  0  0  0
 14 21  1  0  0  0  0
 14 22  1  0  0  0  0
 14 23  1  0  0  0  0
 15 24  1  0  0  0  0
 15 25  1  0  0  0  0
 16 26  1  0  0  0  0
 16 27  1  0  0  0  0
 16 28  1  0  0  0  0
 17 29  1  0  0  0  0
M  CHG  4   1   1   3  -1  10   1  12  -1
M  END
$$$$
