C14H22N2O3
APtclcactv12211717043D 0   0.00000     0.00000
 
 41 42  0  0  0  0  0  0  0  0999 V2000
   -1.5008    0.7391   -1.0297 C   0  0  0  0  0  0  0  0  0  0  0  0
   -2.7723    0.9972   -0.6593 N   0  0  0  0  0  0  0  0  0  0  0  0
   -3.3966    0.2719    0.2757 C   0  0  0  0  0  0  0  0  0  0  0  0
   -2.8669   -0.7917    0.8901 N   0  0  0  0  0  0  0  0  0  0  0  0
   -1.5928   -1.1825    0.6715 C   0  0  0  0  0  0  0  0  0  0  0  0
   -0.7404   -0.3072   -0.2317 C   0  0  0  0  0  0  0  0  0  0  0  0
   -0.0057   -1.2075   -1.2229 C   0  0  0  0  0  0  0  0  0  0  0  0
    0.9427   -2.1586   -0.4935 C   0  0  0  0  0  0  0  0  0  0  0  0
    2.3739   -1.9376   -0.9862 C   0  0  0  0  0  0  0  0  0  0  0  0
    3.2679   -1.5330    0.1877 C   0  0  0  0  0  0  0  0  0  0  0  0
    3.9662   -0.2104   -0.1292 C   0  0  0  0  0  0  0  0  0  0  0  0
    3.6304    0.8249    0.9461 C   0  0  0  0  0  0  0  0  0  0  0  0
    3.0599    2.0802    0.2865 C   0  0  0  0  0  0  0  0  0  0  0  0
    1.7131    2.4361    0.9172 C   0  0  0  0  0  0  0  0  0  0  0  0
    0.5832    1.8033    0.0976 C   0  0  0  0  0  0  0  0  0  0  0  0
    0.2890    0.4056    0.6430 C   0  0  0  0  0  0  0  0  0  0  0  0
   -1.1537   -2.1906    1.1805 O   0  0  0  0  0  0  0  0  0  0  0  0
   -4.5230    0.6016    0.5895 O   0  0  0  0  0  0  0  0  0  0  0  0
   -0.9967    1.3110   -1.9715 O   0  0  0  0  0  0  0  0  0  0  0  0
   -3.2486    1.7281   -1.0839 H   0  0  0  0  0  0  0  0  0  0  0  0
   -3.4135   -1.3002    1.5092 H   0  0  0  0  0  0  0  0  0  0  0  0
   -0.7387   -1.7941   -1.7838 H   0  0  0  0  0  0  0  0  0  0  0  0
    0.5611   -0.5924   -1.9230 H   0  0  0  0  0  0  0  0  0  0  0  0
    0.8958   -1.9908    0.5794 H   0  0  0  0  0  0  0  0  0  0  0  0
    0.6485   -3.1900   -0.7043 H   0  0  0  0  0  0  0  0  0  0  0  0
    2.7498   -2.8635   -1.4254 H   0  0  0  0  0  0  0  0  0  0  0  0
    2.3821   -1.1534   -1.7427 H   0  0  0  0  0  0  0  0  0  0  0  0
    2.6655   -1.4256    1.0886 H   0  0  0  0  0  0  0  0  0  0  0  0
    4.0201   -2.3084    0.3496 H   0  0  0  0  0  0  0  0  0  0  0  0
    5.0463   -0.3674   -0.1552 H   0  0  0  0  0  0  0  0  0  0  0  0
    3.6346    0.1565   -1.1010 H   0  0  0  0  0  0  0  0  0  0  0  0
    2.9062    0.4110    1.6439 H   0  0  0  0  0  0  0  0  0  0  0  0
    4.5408    1.0858    1.4894 H   0  0  0  0  0  0  0  0  0  0  0  0
    3.7551    2.9092    0.4234 H   0  0  0  0  0  0  0  0  0  0  0  0
    2.9240    1.8987   -0.7799 H   0  0  0  0  0  0  0  0  0  0  0  0
    1.6731    2.0623    1.9384 H   0  0  0  0  0  0  0  0  0  0  0  0
    1.5907    3.5197    0.9213 H   0  0  0  0  0  0  0  0  0  0  0  0
   -0.3073    2.4255    0.1737 H   0  0  0  0  0  0  0  0  0  0  0  0
    0.8949    1.7318   -0.9440 H   0  0  0  0  0  0  0  0  0  0  0  0
   -0.0965    0.4911    1.6616 H   0  0  0  0  0  0  0  0  0  0  0  0
    1.2169   -0.1665    0.6643 H   0  0  0  0  0  0  0  0  0  0  0  0
  1  2  1  0  0  0  0
  2  3  1  0  0  0  0
  3  4  1  0  0  0  0
  4  5  1  0  0  0  0
  5  6  1  0  0  0  0
  1  6  1  0  0  0  0
  6  7  1  0  0  0  0
  7  8  1  0  0  0  0
  8  9  1  0  0  0  0
  9 10  1  0  0  0  0
 10 11  1  0  0  0  0
 11 12  1  0  0  0  0
 12 13  1  0  0  0  0
 13 14  1  0  0  0  0
 14 15  1  0  0  0  0
 15 16  1  0  0  0  0
  6 16  1  0  0  0  0
  5 17  2  0  0  0  0
  3 18  2  0  0  0  0
  1 19  2  0  0  0  0
  2 20  1  0  0  0  0
  4 21  1  0  0  0  0
  7 22  1  0  0  0  0
  7 23  1  0  0  0  0
  8 24  1  0  0  0  0
  8 25  1  0  0  0  0
  9 26  1  0  0  0  0
  9 27  1  0  0  0  0
 10 28  1  0  0  0  0
 10 29  1  0  0  0  0
 11 30  1  0  0  0  0
 11 31  1  0  0  0  0
 12 32  1  0  0  0  0
 12 33  1  0  0  0  0
 13 34  1  0  0  0  0
 13 35  1  0  0  0  0
 14 36  1  0  0  0  0
 14 37  1  0  0  0  0
 15 38  1  0  0  0  0
 15 39  1  0  0  0  0
 16 40  1  0  0  0  0
 16 41  1  0  0  0  0
M  END
$$$$
