C14H20N4O2
APtclcactv12211717033D 0   0.00000     0.00000
 
 40 42  0  0  0  0  0  0  0  0999 V2000
   -4.5737   -1.1135   -1.1538 C   0  0  0  0  0  0  0  0  0  0  0  0
   -4.1283   -0.4335    0.1424 C   0  0  0  0  0  0  0  0  0  0  0  0
   -2.8298    0.2450    0.1425 N   0  0  0  0  0  0  0  0  0  0  0  0
   -4.0244    1.0930    0.1438 C   0  0  0  0  0  0  0  0  0  0  0  0
   -1.4397    0.1504    0.1419 C   0  0  0  0  0  0  0  0  0  0  0  0
   -0.7898   -1.1757    0.1404 C   0  0  0  0  0  0  0  0  0  0  0  0
    0.6837   -1.2759    0.1398 C   0  0  0  0  0  0  0  0  0  0  0  0
    1.4397   -0.1505    0.1401 C   0  0  0  0  0  0  0  0  0  0  0  0
    0.7897    1.1757    0.1407 C   0  0  0  0  0  0  0  0  0  0  0  0
   -0.6837    1.2759    0.1371 C   0  0  0  0  0  0  0  0  0  0  0  0
   -1.2969    2.5270    0.1376 N   0  0  0  0  0  0  0  0  0  0  0  0
   -0.4800    3.7431    0.1417 C   0  0  0  0  0  0  0  0  0  0  0  0
    1.4675    2.1846    0.1414 O   0  0  0  0  0  0  0  0  0  0  0  0
    2.8298   -0.2450    0.1405 N   0  0  0  0  0  0  0  0  0  0  0  0
    4.1282    0.4335    0.1409 C   0  0  0  0  0  0  0  0  0  0  0  0
    4.0244   -1.0930    0.1468 C   0  0  0  0  0  0  0  0  0  0  0  0
    4.5739    1.1142   -1.1548 C   0  0  0  0  0  0  0  0  0  0  0  0
    1.2969   -2.5271    0.1393 N   0  0  0  0  0  0  0  0  0  0  0  0
    0.4800   -3.7432    0.1393 C   0  0  0  0  0  0  0  0  0  0  0  0
   -1.4675   -2.1846    0.1401 O   0  0  0  0  0  0  0  0  0  0  0  0
   -3.8497   -1.8803   -1.4292 H   0  0  0  0  0  0  0  0  0  0  0  0
   -5.5510   -1.5730   -1.0057 H   0  0  0  0  0  0  0  0  0  0  0  0
   -4.6379   -0.3717   -1.9498 H   0  0  0  0  0  0  0  0  0  0  0  0
   -4.4433   -0.9227    1.0641 H   0  0  0  0  0  0  0  0  0  0  0  0
   -4.2732    1.6176   -0.7787 H   0  0  0  0  0  0  0  0  0  0  0  0
   -4.2725    1.6159    1.0675 H   0  0  0  0  0  0  0  0  0  0  0  0
   -2.2647    2.5928    0.1352 H   0  0  0  0  0  0  0  0  0  0  0  0
    0.1468    3.7568    1.0333 H   0  0  0  0  0  0  0  0  0  0  0  0
    0.1514    3.7597   -0.7467 H   0  0  0  0  0  0  0  0  0  0  0  0
   -1.1305    4.6178    0.1415 H   0  0  0  0  0  0  0  0  0  0  0  0
    4.4447    0.9192    1.0639 H   0  0  0  0  0  0  0  0  0  0  0  0
    4.2705   -1.6130    1.0726 H   0  0  0  0  0  0  0  0  0  0  0  0
    4.2751   -1.6205   -0.7735 H   0  0  0  0  0  0  0  0  0  0  0  0
    3.8499    1.8811   -1.4300 H   0  0  0  0  0  0  0  0  0  0  0  0
    5.5512    1.5736   -1.0064 H   0  0  0  0  0  0  0  0  0  0  0  0
    4.6382    0.3727   -1.9512 H   0  0  0  0  0  0  0  0  0  0  0  0
    2.2646   -2.5929    0.1388 H   0  0  0  0  0  0  0  0  0  0  0  0
   -0.1488   -3.7585    1.0296 H   0  0  0  0  0  0  0  0  0  0  0  0
   -0.1495   -3.7581   -0.7504 H   0  0  0  0  0  0  0  0  0  0  0  0
    1.1304   -4.6178    0.1389 H   0  0  0  0  0  0  0  0  0  0  0  0
  1  2  1  0  0  0  0
  2  3  1  0  0  0  0
  3  4  1  0  0  0  0
  2  4  1  0  0  0  0
  3  5  1  0  0  0  0
  5  6  1  0  0  0  0
  6  7  1  0  0  0  0
  7  8  2  0  0  0  0
  8  9  1  0  0  0  0
  9 10  1  0  0  0  0
  5 10  2  0  0  0  0
 10 11  1  0  0  0  0
 11 12  1  0  0  0  0
  9 13  2  0  0  0  0
  8 14  1  0  0  0  0
 14 15  1  0  0  0  0
 15 16  1  0  0  0  0
 14 16  1  0  0  0  0
 15 17  1  0  0  0  0
  7 18  1  0  0  0  0
 18 19  1  0  0  0  0
  6 20  2  0  0  0  0
  1 21  1  0  0  0  0
  1 22  1  0  0  0  0
  1 23  1  0  0  0  0
  2 24  1  0  0  0  0
  4 25  1  0  0  0  0
  4 26  1  0  0  0  0
 11 27  1  0  0  0  0
 12 28  1  0  0  0  0
 12 29  1  0  0  0  0
 12 30  1  0  0  0  0
 15 31  1  0  0  0  0
 16 32  1  0  0  0  0
 16 33  1  0  0  0  0
 17 34  1  0  0  0  0
 17 35  1  0  0  0  0
 17 36  1  0  0  0  0
 18 37  1  0  0  0  0
 19 38  1  0  0  0  0
 19 39  1  0  0  0  0
 19 40  1  0  0  0  0
M  END
$$$$
