C17H17N5O4S2
APtclcactv12211717113D 0   0.00000     0.00000
 
 45 47  0  0  0  0  0  0  0  0999 V2000
    2.9857   -2.0307   -0.1945 S   0  0  0  0  0  0  0  0  0  0  0  0
    3.9374   -3.0495    0.0805 O   0  0  0  0  0  0  0  0  0  0  0  0
    3.8899   -0.5225   -0.3069 C   0  0  0  0  0  0  0  0  0  0  0  0
    5.1171   -0.4056    0.3197 C   0  0  0  0  0  0  0  0  0  0  0  0
    5.8284    0.7750    0.2336 C   0  0  0  0  0  0  0  0  0  0  0  0
    5.3098    1.8458   -0.4834 C   0  0  0  0  0  0  0  0  0  0  0  0
    4.0768    1.7250   -1.1116 C   0  0  0  0  0  0  0  0  0  0  0  0
    3.3733    0.5396   -1.0262 C   0  0  0  0  0  0  0  0  0  0  0  0
    6.0264    3.0415   -0.5721 N   0  0  0  0  0  0  0  0  0  0  0  0
    2.1163   -2.0620   -1.3180 O   0  0  0  0  0  0  0  0  0  0  0  0
    2.0165   -1.9225    1.1439 N   0  0  0  0  0  0  0  0  0  0  0  0
    0.9936   -0.9778    1.1887 C   0  0  0  0  0  0  0  0  0  0  0  0
    0.8031   -0.1706    0.1577 N   0  0  0  0  0  0  0  0  0  0  0  0
   -0.1537    0.7387    0.1563 C   0  0  0  0  0  0  0  0  0  0  0  0
   -0.9992    0.8797    1.2458 C   0  0  0  0  0  0  0  0  0  0  0  0
   -0.8289    0.0468    2.3508 C   0  0  0  0  0  0  0  0  0  0  0  0
    0.1806   -0.8976    2.3143 C   0  0  0  0  0  0  0  0  0  0  0  0
   -2.0117    1.8472    1.2368 N   0  0  0  0  0  0  0  0  0  0  0  0
   -2.9626    2.0380   -0.1054 S   0  0  0  0  0  0  0  0  0  0  0  0
   -2.0791    2.1113   -1.2160 O   0  0  0  0  0  0  0  0  0  0  0  0
   -3.8891    0.5525   -0.3038 C   0  0  0  0  0  0  0  0  0  0  0  0
   -5.1256    0.4245    0.3021 C   0  0  0  0  0  0  0  0  0  0  0  0
   -5.8544   -0.7385    0.1486 C   0  0  0  0  0  0  0  0  0  0  0  0
   -5.3441   -1.7804   -0.6153 C   0  0  0  0  0  0  0  0  0  0  0  0
   -4.1017   -1.6485   -1.2225 C   0  0  0  0  0  0  0  0  0  0  0  0
   -3.3806   -0.4806   -1.0696 C   0  0  0  0  0  0  0  0  0  0  0  0
   -6.0783   -2.9582   -0.7721 N   0  0  0  0  0  0  0  0  0  0  0  0
   -3.9013    3.0573    0.2095 O   0  0  0  0  0  0  0  0  0  0  0  0
    5.5196   -1.2384    0.8773 H   0  0  0  0  0  0  0  0  0  0  0  0
    6.7866    0.8658    0.7235 H   0  0  0  0  0  0  0  0  0  0  0  0
    3.6707    2.5555   -1.6699 H   0  0  0  0  0  0  0  0  0  0  0  0
    2.4148    0.4448   -1.5147 H   0  0  0  0  0  0  0  0  0  0  0  0
    6.8871    3.1248   -0.1328 H   0  0  0  0  0  0  0  0  0  0  0  0
    5.6632    3.7885   -1.0731 H   0  0  0  0  0  0  0  0  0  0  0  0
    2.1610   -2.5170    1.8967 H   0  0  0  0  0  0  0  0  0  0  0  0
   -0.2790    1.3804   -0.7033 H   0  0  0  0  0  0  0  0  0  0  0  0
   -1.4727    0.1346    3.2135 H   0  0  0  0  0  0  0  0  0  0  0  0
    0.3406   -1.5595    3.1526 H   0  0  0  0  0  0  0  0  0  0  0  0
   -2.1560    2.4055    2.0168 H   0  0  0  0  0  0  0  0  0  0  0  0
   -5.5216    1.2348    0.8962 H   0  0  0  0  0  0  0  0  0  0  0  0
   -6.8198   -0.8379    0.6224 H   0  0  0  0  0  0  0  0  0  0  0  0
   -3.7020   -2.4567   -1.8171 H   0  0  0  0  0  0  0  0  0  0  0  0
   -2.4148   -0.3773   -1.5417 H   0  0  0  0  0  0  0  0  0  0  0  0
   -6.9456   -3.0493   -0.3474 H   0  0  0  0  0  0  0  0  0  0  0  0
   -5.7209   -3.6851   -1.3058 H   0  0  0  0  0  0  0  0  0  0  0  0
  1  2  2  0  0  0  0
  1  3  1  0  0  0  0
  3  4  2  0  0  0  0
  4  5  1  0  0  0  0
  5  6  2  0  0  0  0
  6  7  1  0  0  0  0
  7  8  2  0  0  0  0
  3  8  1  0  0  0  0
  6  9  1  0  0  0  0
  1 10  2  0  0  0  0
  1 11  1  0  0  0  0
 11 12  1  0  0  0  0
 12 13  2  0  0  0  0
 13 14  1  0  0  0  0
 14 15  2  0  0  0  0
 15 16  1  0  0  0  0
 16 17  2  0  0  0  0
 12 17  1  0  0  0  0
 15 18  1  0  0  0  0
 18 19  1  0  0  0  0
 19 20  2  0  0  0  0
 19 21  1  0  0  0  0
 21 22  2  0  0  0  0
 22 23  1  0  0  0  0
 23 24  2  0  0  0  0
 24 25  1  0  0  0  0
 25 26  2  0  0  0  0
 21 26  1  0  0  0  0
 24 27  1  0  0  0  0
 19 28  2  0  0  0  0
  4 29  1  0  0  0  0
  5 30  1  0  0  0  0
  7 31  1  0  0  0  0
  8 32  1  0  0  0  0
  9 33  1  0  0  0  0
  9 34  1  0  0  0  0
 11 35  1  0  0  0  0
 14 36  1  0  0  0  0
 16 37  1  0  0  0  0
 17 38  1  0  0  0  0
 18 39  1  0  0  0  0
 22 40  1  0  0  0  0
 23 41  1  0  0  0  0
 25 42  1  0  0  0  0
 26 43  1  0  0  0  0
 27 44  1  0  0  0  0
 27 45  1  0  0  0  0
M  END
$$$$
