C10H13NO2
APtclcactv12211717253D 0   0.00000     0.00000
 
 26 26  0  0  0  0  0  0  0  0999 V2000
    2.0973    2.3914    0.1692 C   0  0  0  0  0  0  0  0  0  0  0  0
    1.4834    1.0165    0.1064 C   0  0  0  0  0  0  0  0  0  0  0  0
    2.2934   -0.0976   -0.0562 C   0  0  0  0  0  0  0  0  0  0  0  0
    1.7291   -1.3638   -0.1142 C   0  0  0  0  0  0  0  0  0  0  0  0
    0.3608   -1.5155   -0.0100 C   0  0  0  0  0  0  0  0  0  0  0  0
   -0.4507   -0.4005    0.1532 C   0  0  0  0  0  0  0  0  0  0  0  0
    0.1150    0.8657    0.2164 C   0  0  0  0  0  0  0  0  0  0  0  0
   -1.8394   -0.5537    0.2586 N   0  0  0  0  0  0  0  0  0  0  0  0
   -2.6570    0.4641   -0.0760 C   0  0  0  0  0  0  0  0  0  0  0  0
   -2.1979    1.4761   -0.5623 O   0  0  0  0  0  0  0  0  0  0  0  0
   -4.1416    0.3450    0.1540 C   0  0  0  0  0  0  0  0  0  0  0  0
   -0.2521   -2.8908   -0.0740 C   0  0  0  0  0  0  0  0  0  0  0  0
    3.6410    0.0511   -0.1593 O   0  0  0  0  0  0  0  0  0  0  0  0
    2.1581    2.8084   -0.8360 H   0  0  0  0  0  0  0  0  0  0  0  0
    1.4795    3.0369    0.7936 H   0  0  0  0  0  0  0  0  0  0  0  0
    3.0981    2.3233    0.5955 H   0  0  0  0  0  0  0  0  0  0  0  0
    2.3603   -2.2309   -0.2412 H   0  0  0  0  0  0  0  0  0  0  0  0
   -0.5155    1.7333    0.3434 H   0  0  0  0  0  0  0  0  0  0  0  0
   -2.2124   -1.3924    0.5723 H   0  0  0  0  0  0  0  0  0  0  0  0
   -4.3642   -0.6268    0.5946 H   0  0  0  0  0  0  0  0  0  0  0  0
   -4.4689    1.1343    0.8307 H   0  0  0  0  0  0  0  0  0  0  0  0
   -4.6655    0.4414   -0.7970 H   0  0  0  0  0  0  0  0  0  0  0  0
   -0.3126   -3.3087    0.9309 H   0  0  0  0  0  0  0  0  0  0  0  0
   -1.2530   -2.8231   -0.5002 H   0  0  0  0  0  0  0  0  0  0  0  0
    0.3661   -3.5353   -0.6990 H   0  0  0  0  0  0  0  0  0  0  0  0
    4.1060    0.0208    0.6880 H   0  0  0  0  0  0  0  0  0  0  0  0
  1  2  1  0  0  0  0
  2  3  2  0  0  0  0
  3  4  1  0  0  0  0
  4  5  2  0  0  0  0
  5  6  1  0  0  0  0
  6  7  2  0  0  0  0
  2  7  1  0  0  0  0
  6  8  1  0  0  0  0
  8  9  1  0  0  0  0
  9 10  2  0  0  0  0
  9 11  1  0  0  0  0
  5 12  1  0  0  0  0
  3 13  1  0  0  0  0
  1 14  1  0  0  0  0
  1 15  1  0  0  0  0
  1 16  1  0  0  0  0
  4 17  1  0  0  0  0
  7 18  1  0  0  0  0
  8 19  1  0  0  0  0
 11 20  1  0  0  0  0
 11 21  1  0  0  0  0
 11 22  1  0  0  0  0
 12 23  1  0  0  0  0
 12 24  1  0  0  0  0
 12 25  1  0  0  0  0
 13 26  1  0  0  0  0
M  END
$$$$
