C16H16N6O4S2
APtclcactv12211717113D 0   0.00000     0.00000
 
 44 46  0  0  0  0  0  0  0  0999 V2000
   -3.7981   -1.1045   -0.5659 S   0  0  0  0  0  0  0  0  0  0  0  0
   -4.9292   -0.9434   -1.4108 O   0  0  0  0  0  0  0  0  0  0  0  0
   -3.4520    0.4853    0.1105 C   0  0  0  0  0  0  0  0  0  0  0  0
   -3.8753    1.6235   -0.5510 C   0  0  0  0  0  0  0  0  0  0  0  0
   -3.6057    2.8711   -0.0236 C   0  0  0  0  0  0  0  0  0  0  0  0
   -2.9085    2.9818    1.1727 C   0  0  0  0  0  0  0  0  0  0  0  0
   -2.4847    1.8364    1.8346 C   0  0  0  0  0  0  0  0  0  0  0  0
   -2.7626    0.5918    1.3045 C   0  0  0  0  0  0  0  0  0  0  0  0
   -2.6337    4.2420    1.7087 N   0  0  0  0  0  0  0  0  0  0  0  0
   -3.7638   -2.0191    0.5210 O   0  0  0  0  0  0  0  0  0  0  0  0
   -2.5300   -1.5038   -1.5532 N   0  0  0  0  0  0  0  0  0  0  0  0
   -1.2664   -1.6979   -1.0150 C   0  0  0  0  0  0  0  0  0  0  0  0
   -0.3400   -2.2994   -1.7455 N   0  0  0  0  0  0  0  0  0  0  0  0
    0.8759   -2.5017   -1.2653 C   0  0  0  0  0  0  0  0  0  0  0  0
    1.1745   -2.0730    0.0247 C   0  0  0  0  0  0  0  0  0  0  0  0
    0.1749   -1.4449    0.7617 C   0  0  0  0  0  0  0  0  0  0  0  0
   -1.0167   -1.2721    0.2137 N   0  0  0  0  0  0  0  0  0  0  0  0
    2.4505   -2.2695    0.5684 N   0  0  0  0  0  0  0  0  0  0  0  0
    3.2135   -1.0304    1.3588 S   0  0  0  0  0  0  0  0  0  0  0  0
    4.5115   -1.5046    1.6898 O   0  0  0  0  0  0  0  0  0  0  0  0
    3.4416    0.2703    0.1923 C   0  0  0  0  0  0  0  0  0  0  0  0
    2.5191    1.2976    0.1154 C   0  0  0  0  0  0  0  0  0  0  0  0
    2.6948    2.3187   -0.7977 C   0  0  0  0  0  0  0  0  0  0  0  0
    3.7997    2.3129   -1.6396 C   0  0  0  0  0  0  0  0  0  0  0  0
    4.7244    1.2794   -1.5598 C   0  0  0  0  0  0  0  0  0  0  0  0
    4.5456    0.2644   -0.6405 C   0  0  0  0  0  0  0  0  0  0  0  0
    3.9802    3.3437   -2.5647 N   0  0  0  0  0  0  0  0  0  0  0  0
    2.2932   -0.5447    2.3265 O   0  0  0  0  0  0  0  0  0  0  0  0
   -4.4170    1.5367   -1.4813 H   0  0  0  0  0  0  0  0  0  0  0  0
   -3.9362    3.7596   -0.5409 H   0  0  0  0  0  0  0  0  0  0  0  0
   -1.9424    1.9190    2.7649 H   0  0  0  0  0  0  0  0  0  0  0  0
   -2.4338   -0.2992    1.8188 H   0  0  0  0  0  0  0  0  0  0  0  0
   -2.9298    5.0412    1.2454 H   0  0  0  0  0  0  0  0  0  0  0  0
   -2.1468    4.3181    2.5441 H   0  0  0  0  0  0  0  0  0  0  0  0
   -2.6708   -1.6019   -2.5079 H   0  0  0  0  0  0  0  0  0  0  0  0
    1.6268   -2.9932   -1.8662 H   0  0  0  0  0  0  0  0  0  0  0  0
    0.3707   -1.0995    1.7661 H   0  0  0  0  0  0  0  0  0  0  0  0
    2.8870   -3.1314    0.4819 H   0  0  0  0  0  0  0  0  0  0  0  0
    1.6601    1.3013    0.7700 H   0  0  0  0  0  0  0  0  0  0  0  0
    1.9738    3.1206   -0.8575 H   0  0  0  0  0  0  0  0  0  0  0  0
    5.5845    1.2719   -2.2129 H   0  0  0  0  0  0  0  0  0  0  0  0
    5.2643   -0.5393   -0.5776 H   0  0  0  0  0  0  0  0  0  0  0  0
    3.3337    4.0647   -2.6197 H   0  0  0  0  0  0  0  0  0  0  0  0
    4.7522    3.3386   -3.1520 H   0  0  0  0  0  0  0  0  0  0  0  0
  1  2  2  0  0  0  0
  1  3  1  0  0  0  0
  3  4  2  0  0  0  0
  4  5  1  0  0  0  0
  5  6  2  0  0  0  0
  6  7  1  0  0  0  0
  7  8  2  0  0  0  0
  3  8  1  0  0  0  0
  6  9  1  0  0  0  0
  1 10  2  0  0  0  0
  1 11  1  0  0  0  0
 11 12  1  0  0  0  0
 12 13  2  0  0  0  0
 13 14  1  0  0  0  0
 14 15  2  0  0  0  0
 15 16  1  0  0  0  0
 16 17  2  0  0  0  0
 12 17  1  0  0  0  0
 15 18  1  0  0  0  0
 18 19  1  0  0  0  0
 19 20  2  0  0  0  0
 19 21  1  0  0  0  0
 21 22  2  0  0  0  0
 22 23  1  0  0  0  0
 23 24  2  0  0  0  0
 24 25  1  0  0  0  0
 25 26  2  0  0  0  0
 21 26  1  0  0  0  0
 24 27  1  0  0  0  0
 19 28  2  0  0  0  0
  4 29  1  0  0  0  0
  5 30  1  0  0  0  0
  7 31  1  0  0  0  0
  8 32  1  0  0  0  0
  9 33  1  0  0  0  0
  9 34  1  0  0  0  0
 11 35  1  0  0  0  0
 14 36  1  0  0  0  0
 16 37  1  0  0  0  0
 18 38  1  0  0  0  0
 22 39  1  0  0  0  0
 23 40  1  0  0  0  0
 25 41  1  0  0  0  0
 26 42  1  0  0  0  0
 27 43  1  0  0  0  0
 27 44  1  0  0  0  0
M  END
$$$$
