C4H6N2O2
APtclcactv12211716373D 0   0.00000     0.00000
 
 14 14  0  0  0  0  0  0  0  0999 V2000
   -0.7521    1.1763   -0.0031 N   0  0  0  0  0  0  0  0  0  0  0  0
   -1.3862   -0.0003   -0.0057 C   0  0  0  0  0  0  0  0  0  0  0  0
   -0.6802   -1.3015    0.2303 C   0  0  0  0  0  0  0  0  0  0  0  0
    0.7521   -1.1763   -0.0034 N   0  0  0  0  0  0  0  0  0  0  0  0
    1.3861    0.0003   -0.0057 C   0  0  0  0  0  0  0  0  0  0  0  0
    0.6802    1.3015    0.2305 C   0  0  0  0  0  0  0  0  0  0  0  0
    2.5820    0.0159   -0.2070 O   0  0  0  0  0  0  0  0  0  0  0  0
   -2.5821   -0.0158   -0.2069 O   0  0  0  0  0  0  0  0  0  0  0  0
   -1.2674    1.9814   -0.1679 H   0  0  0  0  0  0  0  0  0  0  0  0
   -0.8476   -1.6167    1.2603 H   0  0  0  0  0  0  0  0  0  0  0  0
   -1.0872   -2.0557   -0.4432 H   0  0  0  0  0  0  0  0  0  0  0  0
    1.2681   -1.9818   -0.1639 H   0  0  0  0  0  0  0  0  0  0  0  0
    1.0872    2.0558   -0.4429 H   0  0  0  0  0  0  0  0  0  0  0  0
    0.8476    1.6165    1.2605 H   0  0  0  0  0  0  0  0  0  0  0  0
  1  2  1  0  0  0  0
  2  3  1  0  0  0  0
  3  4  1  0  0  0  0
  4  5  1  0  0  0  0
  5  6  1  0  0  0  0
  1  6  1  0  0  0  0
  5  7  2  0  0  0  0
  2  8  2  0  0  0  0
  1  9  1  0  0  0  0
  3 10  1  0  0  0  0
  3 11  1  0  0  0  0
  4 12  1  0  0  0  0
  6 13  1  0  0  0  0
  6 14  1  0  0  0  0
M  END
$$$$
