C6H3Cl2NO2
APtclcactv12211716483D 0   0.00000     0.00000
 
 14 14  0  0  0  0  0  0  0  0999 V2000
   -2.4589   -1.3657   -0.0006 Cl  0  0  0  0  0  0  0  0  0  0  0  0
   -0.7840   -0.9091   -0.0008 C   0  0  0  0  0  0  0  0  0  0  0  0
   -0.4318    0.4286    0.0000 C   0  0  0  0  0  0  0  0  0  0  0  0
    0.9018    0.7921    0.0004 C   0  0  0  0  0  0  0  0  0  0  0  0
    1.8842   -0.1818   -0.0002 C   0  0  0  0  0  0  0  0  0  0  0  0
    1.5318   -1.5200   -0.0011 C   0  0  0  0  0  0  0  0  0  0  0  0
    0.1987   -1.8833    0.0039 C   0  0  0  0  0  0  0  0  0  0  0  0
    3.5590    0.2747   -0.0004 Cl  0  0  0  0  0  0  0  0  0  0  0  0
   -1.4829    1.4707    0.0001 N   0  3  0  0  0  0  0  0  0  0  0  0
   -1.1727    2.6485    0.0009 O   0  0  0  0  0  0  0  0  0  0  0  0
   -2.6580    1.1504   -0.0005 O   0  5  0  0  0  0  0  0  0  0  0  0
    1.1768    1.8365    0.0007 H   0  0  0  0  0  0  0  0  0  0  0  0
    2.2988   -2.2803   -0.0019 H   0  0  0  0  0  0  0  0  0  0  0  0
   -0.0764   -2.9277    0.0032 H   0  0  0  0  0  0  0  0  0  0  0  0
  1  2  1  0  0  0  0
  2  3  2  0  0  0  0
  3  4  1  0  0  0  0
  4  5  2  0  0  0  0
  5  6  1  0  0  0  0
  6  7  2  0  0  0  0
  2  7  1  0  0  0  0
  5  8  1  0  0  0  0
  3  9  1  0  0  0  0
  9 10  2  0  0  0  0
  9 11  1  0  0  0  0
  4 12  1  0  0  0  0
  6 13  1  0  0  0  0
  7 14  1  0  0  0  0
M  CHG  2   9   1  11  -1
M  END
$$$$
