C9H10N4
APtclcactv12151716443D 0   0.00000     0.00000
 
 23 24  0  0  0  0  0  0  0  0999 V2000
    4.0108    0.8529    0.0011 C   0  0  0  0  0  0  0  0  0  0  0  0
    2.6304    0.2485    0.0010 C   0  0  0  0  0  0  0  0  0  0  0  0
    1.5939    1.0517    0.0008 N   0  0  0  0  0  0  0  0  0  0  0  0
    0.3517    0.5534    0.0006 C   0  0  0  0  0  0  0  0  0  0  0  0
   -0.7249    1.3437   -0.0001 N   0  0  0  0  0  0  0  0  0  0  0  0
   -1.9248    0.8066   -0.0005 C   0  0  0  0  0  0  0  0  0  0  0  0
   -2.0871   -0.5812    0.0002 C   0  0  0  0  0  0  0  0  0  0  0  0
   -1.0425   -1.3785    0.0009 N   0  0  0  0  0  0  0  0  0  0  0  0
    0.1844   -0.8554    0.0009 C   0  0  0  0  0  0  0  0  0  0  0  0
    1.3394   -1.6625    0.0005 C   0  0  0  0  0  0  0  0  0  0  0  0
    2.5164   -1.0717   -0.0043 N   0  0  0  0  0  0  0  0  0  0  0  0
   -3.4744   -1.1697    0.0007 C   0  0  0  0  0  0  0  0  0  0  0  0
   -3.1397    1.6983   -0.0014 C   0  0  0  0  0  0  0  0  0  0  0  0
    4.3435    0.9988    1.0288 H   0  0  0  0  0  0  0  0  0  0  0  0
    4.7007    0.1834   -0.5126 H   0  0  0  0  0  0  0  0  0  0  0  0
    3.9868    1.8139   -0.5129 H   0  0  0  0  0  0  0  0  0  0  0  0
    1.2613   -2.7397    0.0012 H   0  0  0  0  0  0  0  0  0  0  0  0
   -3.8090   -1.3122   -1.0268 H   0  0  0  0  0  0  0  0  0  0  0  0
   -3.4612   -2.1307    0.5150 H   0  0  0  0  0  0  0  0  0  0  0  0
   -4.1564   -0.4921    0.5143 H   0  0  0  0  0  0  0  0  0  0  0  0
   -3.4321    1.9130   -1.0292 H   0  0  0  0  0  0  0  0  0  0  0  0
   -3.9595    1.1959    0.5122 H   0  0  0  0  0  0  0  0  0  0  0  0
   -2.9063    2.6309    0.5123 H   0  0  0  0  0  0  0  0  0  0  0  0
  1  2  1  0  0  0  0
  2  3  2  0  0  0  0
  3  4  1  0  0  0  0
  4  5  2  0  0  0  0
  5  6  1  0  0  0  0
  6  7  2  0  0  0  0
  7  8  1  0  0  0  0
  8  9  2  0  0  0  0
  4  9  1  0  0  0  0
  9 10  1  0  0  0  0
 10 11  2  0  0  0  0
  2 11  1  0  0  0  0
  7 12  1  0  0  0  0
  6 13  1  0  0  0  0
  1 14  1  0  0  0  0
  1 15  1  0  0  0  0
  1 16  1  0  0  0  0
 10 17  1  0  0  0  0
 12 18  1  0  0  0  0
 12 19  1  0  0  0  0
 12 20  1  0  0  0  0
 13 21  1  0  0  0  0
 13 22  1  0  0  0  0
 13 23  1  0  0  0  0
M  END
$$$$
