C9H20O
APtclcactv12151716533D 0   0.00000     0.00000
 
 30 29  0  0  0  0  0  0  0  0999 V2000
    3.7454    0.5910    0.5154 C   0  0  0  0  0  0  0  0  0  0  0  0
    2.4946   -0.0026   -0.1358 C   0  0  0  0  0  0  0  0  0  0  0  0
    2.5068   -1.5237    0.0289 C   0  0  0  0  0  0  0  0  0  0  0  0
    1.2470    0.5732    0.5373 C   0  0  0  0  0  0  0  0  0  0  0  0
   -0.0014    0.0887   -0.2028 C   0  0  0  0  0  0  0  0  0  0  0  0
   -1.2514    0.5826    0.5282 C   0  0  0  0  0  0  0  0  0  0  0  0
   -2.4973   -0.0041   -0.1385 C   0  0  0  0  0  0  0  0  0  0  0  0
   -2.5008   -1.5242    0.0353 C   0  0  0  0  0  0  0  0  0  0  0  0
   -3.7498    0.5865    0.5121 C   0  0  0  0  0  0  0  0  0  0  0  0
    0.0054    0.6034   -1.5359 O   0  0  0  0  0  0  0  0  0  0  0  0
    4.6329    0.1166    0.0966 H   0  0  0  0  0  0  0  0  0  0  0  0
    3.7813    1.6632    0.3227 H   0  0  0  0  0  0  0  0  0  0  0  0
    3.7130    0.4159    1.5908 H   0  0  0  0  0  0  0  0  0  0  0  0
    2.4835    0.2479   -1.1965 H   0  0  0  0  0  0  0  0  0  0  0  0
    2.5179   -1.7742    1.0897 H   0  0  0  0  0  0  0  0  0  0  0  0
    1.6157   -1.9466   -0.4350 H   0  0  0  0  0  0  0  0  0  0  0  0
    3.3956   -1.9339   -0.4506 H   0  0  0  0  0  0  0  0  0  0  0  0
    1.2070    0.2398    1.5743 H   0  0  0  0  0  0  0  0  0  0  0  0
    1.2877    1.6620    0.5071 H   0  0  0  0  0  0  0  0  0  0  0  0
   -0.0053   -1.0008   -0.2340 H   0  0  0  0  0  0  0  0  0  0  0  0
   -1.2127    0.2641    1.5699 H   0  0  0  0  0  0  0  0  0  0  0  0
   -1.2931    1.6708    0.4823 H   0  0  0  0  0  0  0  0  0  0  0  0
   -2.4900    0.2402   -1.2008 H   0  0  0  0  0  0  0  0  0  0  0  0
   -3.3884   -1.9421   -0.4397 H   0  0  0  0  0  0  0  0  0  0  0  0
   -1.6084   -1.9449   -0.4282 H   0  0  0  0  0  0  0  0  0  0  0  0
   -2.5080   -1.7684    1.0975 H   0  0  0  0  0  0  0  0  0  0  0  0
   -3.7473    1.6694    0.3883 H   0  0  0  0  0  0  0  0  0  0  0  0
   -4.6374    0.1685    0.0371 H   0  0  0  0  0  0  0  0  0  0  0  0
   -3.7571    0.3422    1.5743 H   0  0  0  0  0  0  0  0  0  0  0  0
    0.0092    1.5692   -1.5846 H   0  0  0  0  0  0  0  0  0  0  0  0
  1  2  1  0  0  0  0
  2  3  1  0  0  0  0
  2  4  1  0  0  0  0
  4  5  1  0  0  0  0
  5  6  1  0  0  0  0
  6  7  1  0  0  0  0
  7  8  1  0  0  0  0
  7  9  1  0  0  0  0
  5 10  1  0  0  0  0
  1 11  1  0  0  0  0
  1 12  1  0  0  0  0
  1 13  1  0  0  0  0
  2 14  1  0  0  0  0
  3 15  1  0  0  0  0
  3 16  1  0  0  0  0
  3 17  1  0  0  0  0
  4 18  1  0  0  0  0
  4 19  1  0  0  0  0
  5 20  1  0  0  0  0
  6 21  1  0  0  0  0
  6 22  1  0  0  0  0
  7 23  1  0  0  0  0
  8 24  1  0  0  0  0
  8 25  1  0  0  0  0
  8 26  1  0  0  0  0
  9 27  1  0  0  0  0
  9 28  1  0  0  0  0
  9 29  1  0  0  0  0
 10 30  1  0  0  0  0
M  END
$$$$
