C9H18O
APtclcactv12151716523D 0   0.00000     0.00000
 
 28 27  0  0  0  0  0  0  0  0999 V2000
    3.7555   -0.6526    0.5217 C   0  0  0  0  0  0  0  0  0  0  0  0
    2.4545    0.1082    0.2583 C   0  0  0  0  0  0  0  0  0  0  0  0
    2.5828    0.9030   -1.0427 C   0  0  0  0  0  0  0  0  0  0  0  0
    1.2979   -0.8860    0.1366 C   0  0  0  0  0  0  0  0  0  0  0  0
    0.0000   -0.1325   -0.0000 C   0  0  0  0  0  0  0  0  0  0  0  0
   -1.2979   -0.8860   -0.1366 C   0  0  0  0  0  0  0  0  0  0  0  0
   -2.4545    0.1082   -0.2583 C   0  0  0  0  0  0  0  0  0  0  0  0
   -3.7555   -0.6526   -0.5217 C   0  0  0  0  0  0  0  0  0  0  0  0
   -2.5828    0.9030    1.0427 C   0  0  0  0  0  0  0  0  0  0  0  0
   -0.0000    1.0751    0.0000 O   0  0  0  0  0  0  0  0  0  0  0  0
    4.5794    0.0557    0.6084 H   0  0  0  0  0  0  0  0  0  0  0  0
    3.6640   -1.2188    1.4486 H   0  0  0  0  0  0  0  0  0  0  0  0
    3.9499   -1.3368   -0.3043 H   0  0  0  0  0  0  0  0  0  0  0  0
    2.2601    0.7923    1.0843 H   0  0  0  0  0  0  0  0  0  0  0  0
    1.6560    1.4450   -1.2303 H   0  0  0  0  0  0  0  0  0  0  0  0
    3.4068    1.6113   -0.9560 H   0  0  0  0  0  0  0  0  0  0  0  0
    2.7772    0.2189   -1.8687 H   0  0  0  0  0  0  0  0  0  0  0  0
    1.4485   -1.5127   -0.7424 H   0  0  0  0  0  0  0  0  0  0  0  0
    1.2622   -1.5127    1.0277 H   0  0  0  0  0  0  0  0  0  0  0  0
   -1.2622   -1.5127   -1.0277 H   0  0  0  0  0  0  0  0  0  0  0  0
   -1.4485   -1.5127    0.7424 H   0  0  0  0  0  0  0  0  0  0  0  0
   -2.2601    0.7923   -1.0843 H   0  0  0  0  0  0  0  0  0  0  0  0
   -3.9499   -1.3368    0.3043 H   0  0  0  0  0  0  0  0  0  0  0  0
   -4.5794    0.0557   -0.6084 H   0  0  0  0  0  0  0  0  0  0  0  0
   -3.6640   -1.2188   -1.4486 H   0  0  0  0  0  0  0  0  0  0  0  0
   -2.7772    0.2189    1.8687 H   0  0  0  0  0  0  0  0  0  0  0  0
   -1.6560    1.4450    1.2303 H   0  0  0  0  0  0  0  0  0  0  0  0
   -3.4068    1.6113    0.9560 H   0  0  0  0  0  0  0  0  0  0  0  0
  1  2  1  0  0  0  0
  2  3  1  0  0  0  0
  2  4  1  0  0  0  0
  4  5  1  0  0  0  0
  5  6  1  0  0  0  0
  6  7  1  0  0  0  0
  7  8  1  0  0  0  0
  7  9  1  0  0  0  0
  5 10  2  0  0  0  0
  1 11  1  0  0  0  0
  1 12  1  0  0  0  0
  1 13  1  0  0  0  0
  2 14  1  0  0  0  0
  3 15  1  0  0  0  0
  3 16  1  0  0  0  0
  3 17  1  0  0  0  0
  4 18  1  0  0  0  0
  4 19  1  0  0  0  0
  6 20  1  0  0  0  0
  6 21  1  0  0  0  0
  7 22  1  0  0  0  0
  8 23  1  0  0  0  0
  8 24  1  0  0  0  0
  8 25  1  0  0  0  0
  9 26  1  0  0  0  0
  9 27  1  0  0  0  0
  9 28  1  0  0  0  0
M  END
$$$$
