C6H4Cl2O
APtclcactv12211716493D 0   0.00000     0.00000
 
 13 13  0  0  0  0  0  0  0  0999 V2000
   -2.7060    0.6206   -0.0112 Cl  0  0  0  0  0  0  0  0  0  0  0  0
   -1.2012   -0.2448   -0.0041 C   0  0  0  0  0  0  0  0  0  0  0  0
    0.0000    0.4504   -0.0092 C   0  0  0  0  0  0  0  0  0  0  0  0
    1.2012   -0.2448   -0.0035 C   0  0  0  0  0  0  0  0  0  0  0  0
    1.1981   -1.6274    0.0071 C   0  0  0  0  0  0  0  0  0  0  0  0
    0.0000   -2.3174    0.0117 C   0  0  0  0  0  0  0  0  0  0  0  0
   -1.1981   -1.6274    0.0123 C   0  0  0  0  0  0  0  0  0  0  0  0
    2.7060    0.6207   -0.0104 Cl  0  0  0  0  0  0  0  0  0  0  0  0
   -0.0000    1.8099   -0.0201 O   0  0  0  0  0  0  0  0  0  0  0  0
    2.1325   -2.1690    0.0115 H   0  0  0  0  0  0  0  0  0  0  0  0
    0.0000   -3.3973    0.0196 H   0  0  0  0  0  0  0  0  0  0  0  0
   -2.1325   -2.1689    0.0163 H   0  0  0  0  0  0  0  0  0  0  0  0
   -0.0004    2.2103    0.8601 H   0  0  0  0  0  0  0  0  0  0  0  0
  1  2  1  0  0  0  0
  2  3  2  0  0  0  0
  3  4  1  0  0  0  0
  4  5  2  0  0  0  0
  5  6  1  0  0  0  0
  6  7  2  0  0  0  0
  2  7  1  0  0  0  0
  4  8  1  0  0  0  0
  3  9  1  0  0  0  0
  5 10  1  0  0  0  0
  6 11  1  0  0  0  0
  7 12  1  0  0  0  0
  9 13  1  0  0  0  0
M  END
$$$$
