C7H5Cl2NS
APtclcactv12151716133D 0   0.00000     0.00000
 
 16 16  0  0  0  0  0  0  0  0999 V2000
   -2.7012   -0.1619   -0.1632 Cl  0  0  0  0  0  0  0  0  0  0  0  0
   -1.1479   -0.9240   -0.0217 C   0  0  0  0  0  0  0  0  0  0  0  0
    0.0189   -0.1594   -0.1135 C   0  0  0  0  0  0  0  0  0  0  0  0
   -0.0643    1.2970   -0.3309 C   0  0  0  0  0  0  0  0  0  0  0  0
   -0.2319    2.3537    1.0056 S   0  0  0  0  0  0  0  0  0  0  0  0
   -0.0085    1.7960   -1.5816 N   0  0  0  0  0  0  0  0  0  0  0  0
    1.2651   -0.7825    0.0022 C   0  0  0  0  0  0  0  0  0  0  0  0
    1.3346   -2.1464    0.2060 C   0  0  0  0  0  0  0  0  0  0  0  0
    0.1754   -2.8960    0.2957 C   0  0  0  0  0  0  0  0  0  0  0  0
   -1.0616   -2.2861    0.1875 C   0  0  0  0  0  0  0  0  0  0  0  0
    2.7212    0.1560   -0.1106 Cl  0  0  0  0  0  0  0  0  0  0  0  0
    0.0107    1.1953   -2.3430 H   0  0  0  0  0  0  0  0  0  0  0  0
    0.0124    2.7558   -1.7204 H   0  0  0  0  0  0  0  0  0  0  0  0
    2.2965   -2.6293    0.2953 H   0  0  0  0  0  0  0  0  0  0  0  0
    0.2364   -3.9624    0.4552 H   0  0  0  0  0  0  0  0  0  0  0  0
   -1.9621   -2.8782    0.2586 H   0  0  0  0  0  0  0  0  0  0  0  0
  1  2  1  0  0  0  0
  2  3  2  0  0  0  0
  3  4  1  0  0  0  0
  4  5  2  0  0  0  0
  4  6  1  0  0  0  0
  3  7  1  0  0  0  0
  7  8  2  0  0  0  0
  8  9  1  0  0  0  0
  9 10  2  0  0  0  0
  2 10  1  0  0  0  0
  7 11  1  0  0  0  0
  6 12  1  0  0  0  0
  6 13  1  0  0  0  0
  8 14  1  0  0  0  0
  9 15  1  0  0  0  0
 10 16  1  0  0  0  0
M  END
$$$$
