C9H20
APtclcactv12151716533D 0   0.00000     0.00000
 
 29 28  0  0  0  0  0  0  0  0999 V2000
   -2.6907    1.0057   -1.0189 C   0  0  0  0  0  0  0  0  0  0  0  0
   -2.4835    0.2135    0.2736 C   0  0  0  0  0  0  0  0  0  0  0  0
   -3.7083   -0.6653    0.5350 C   0  0  0  0  0  0  0  0  0  0  0  0
   -1.2417   -0.6698    0.1368 C   0  0  0  0  0  0  0  0  0  0  0  0
    0.0000    0.2135    0.0000 C   0  0  0  0  0  0  0  0  0  0  0  0
    1.2417   -0.6698   -0.1368 C   0  0  0  0  0  0  0  0  0  0  0  0
    2.4835    0.2135   -0.2736 C   0  0  0  0  0  0  0  0  0  0  0  0
    2.6907    1.0057    1.0189 C   0  0  0  0  0  0  0  0  0  0  0  0
    3.7083   -0.6653   -0.5350 C   0  0  0  0  0  0  0  0  0  0  0  0
   -1.8181    1.6319   -1.2051 H   0  0  0  0  0  0  0  0  0  0  0  0
   -2.8262    0.3147   -1.8508 H   0  0  0  0  0  0  0  0  0  0  0  0
   -3.5753    1.6350   -0.9214 H   0  0  0  0  0  0  0  0  0  0  0  0
   -2.3479    0.9046    1.1055 H   0  0  0  0  0  0  0  0  0  0  0  0
   -3.8438   -1.3564   -0.2970 H   0  0  0  0  0  0  0  0  0  0  0  0
   -3.5606   -1.2297    1.4557 H   0  0  0  0  0  0  0  0  0  0  0  0
   -4.5929   -0.0360    0.6324 H   0  0  0  0  0  0  0  0  0  0  0  0
   -1.1443   -1.2991    1.0214 H   0  0  0  0  0  0  0  0  0  0  0  0
   -1.3392   -1.2991   -0.7478 H   0  0  0  0  0  0  0  0  0  0  0  0
   -0.0974    0.8428   -0.8846 H   0  0  0  0  0  0  0  0  0  0  0  0
    0.0974    0.8428    0.8846 H   0  0  0  0  0  0  0  0  0  0  0  0
    1.3392   -1.2991    0.7478 H   0  0  0  0  0  0  0  0  0  0  0  0
    1.1443   -1.2991   -1.0214 H   0  0  0  0  0  0  0  0  0  0  0  0
    2.3479    0.9046   -1.1055 H   0  0  0  0  0  0  0  0  0  0  0  0
    3.5753    1.6350    0.9214 H   0  0  0  0  0  0  0  0  0  0  0  0
    1.8181    1.6319    1.2051 H   0  0  0  0  0  0  0  0  0  0  0  0
    2.8262    0.3147    1.8508 H   0  0  0  0  0  0  0  0  0  0  0  0
    3.5606   -1.2297   -1.4557 H   0  0  0  0  0  0  0  0  0  0  0  0
    4.5929   -0.0360   -0.6324 H   0  0  0  0  0  0  0  0  0  0  0  0
    3.8438   -1.3564    0.2970 H   0  0  0  0  0  0  0  0  0  0  0  0
  1  2  1  0  0  0  0
  2  3  1  0  0  0  0
  2  4  1  0  0  0  0
  4  5  1  0  0  0  0
  5  6  1  0  0  0  0
  6  7  1  0  0  0  0
  7  8  1  0  0  0  0
  7  9  1  0  0  0  0
  1 10  1  0  0  0  0
  1 11  1  0  0  0  0
  1 12  1  0  0  0  0
  2 13  1  0  0  0  0
  3 14  1  0  0  0  0
  3 15  1  0  0  0  0
  3 16  1  0  0  0  0
  4 17  1  0  0  0  0
  4 18  1  0  0  0  0
  5 19  1  0  0  0  0
  5 20  1  0  0  0  0
  6 21  1  0  0  0  0
  6 22  1  0  0  0  0
  7 23  1  0  0  0  0
  8 24  1  0  0  0  0
  8 25  1  0  0  0  0
  8 26  1  0  0  0  0
  9 27  1  0  0  0  0
  9 28  1  0  0  0  0
  9 29  1  0  0  0  0
M  END
$$$$
