C12H18O
APtclcactv12141705283D 0   0.00000     0.00000
 
 31 31  0  0  0  0  0  0  0  0999 V2000
   -2.4032   -0.2606   -0.7122 C   0  0  0  0  0  0  0  0  0  0  0  0
   -3.1782   -0.6174    0.5577 C   0  0  0  0  0  0  0  0  0  0  0  0
   -4.4482   -1.3834    0.1819 C   0  0  0  0  0  0  0  0  0  0  0  0
   -1.1522    0.4938   -0.3420 C   0  0  0  0  0  0  0  0  0  0  0  0
   -0.0014   -0.1984    0.0060 C   0  0  0  0  0  0  0  0  0  0  0  0
    1.1486    0.4990    0.3464 C   0  0  0  0  0  0  0  0  0  0  0  0
    1.1451    1.8805    0.3381 C   0  0  0  0  0  0  0  0  0  0  0  0
   -0.0033    2.5680   -0.0087 C   0  0  0  0  0  0  0  0  0  0  0  0
   -1.1489    1.8752   -0.3543 C   0  0  0  0  0  0  0  0  0  0  0  0
    2.4003   -0.2497    0.7253 C   0  0  0  0  0  0  0  0  0  0  0  0
    3.1761   -0.6199   -0.5404 C   0  0  0  0  0  0  0  0  0  0  0  0
    4.4469   -1.3801   -0.1557 C   0  0  0  0  0  0  0  0  0  0  0  0
   -0.0007   -1.5574    0.0138 O   0  0  0  0  0  0  0  0  0  0  0  0
   -2.1331   -1.1742   -1.2419 H   0  0  0  0  0  0  0  0  0  0  0  0
   -3.0258    0.3616   -1.3551 H   0  0  0  0  0  0  0  0  0  0  0  0
   -2.5556   -1.2396    1.2006 H   0  0  0  0  0  0  0  0  0  0  0  0
   -3.4482    0.2962    1.0874 H   0  0  0  0  0  0  0  0  0  0  0  0
   -5.0004   -1.6376    1.0866 H   0  0  0  0  0  0  0  0  0  0  0  0
   -5.0709   -0.7612   -0.4610 H   0  0  0  0  0  0  0  0  0  0  0  0
   -4.1782   -2.2970   -0.3478 H   0  0  0  0  0  0  0  0  0  0  0  0
    2.0401    2.4238    0.6030 H   0  0  0  0  0  0  0  0  0  0  0  0
   -0.0042    3.6480   -0.0139 H   0  0  0  0  0  0  0  0  0  0  0  0
   -2.0446    2.4145   -0.6247 H   0  0  0  0  0  0  0  0  0  0  0  0
    3.0221    0.3804    1.3613 H   0  0  0  0  0  0  0  0  0  0  0  0
    2.1312   -1.1576    1.2651 H   0  0  0  0  0  0  0  0  0  0  0  0
    2.5543   -1.2500   -1.1764 H   0  0  0  0  0  0  0  0  0  0  0  0
    3.4451    0.2880   -1.0802 H   0  0  0  0  0  0  0  0  0  0  0  0
    4.9995   -1.6438   -1.0574 H   0  0  0  0  0  0  0  0  0  0  0  0
    5.0687   -0.7500    0.4803 H   0  0  0  0  0  0  0  0  0  0  0  0
    4.1778   -2.2880    0.3842 H   0  0  0  0  0  0  0  0  0  0  0  0
    0.2526   -1.9554   -0.8303 H   0  0  0  0  0  0  0  0  0  0  0  0
  1  2  1  0  0  0  0
  2  3  1  0  0  0  0
  1  4  1  0  0  0  0
  4  5  2  0  0  0  0
  5  6  1  0  0  0  0
  6  7  2  0  0  0  0
  7  8  1  0  0  0  0
  8  9  2  0  0  0  0
  4  9  1  0  0  0  0
  6 10  1  0  0  0  0
 10 11  1  0  0  0  0
 11 12  1  0  0  0  0
  5 13  1  0  0  0  0
  1 14  1  0  0  0  0
  1 15  1  0  0  0  0
  2 16  1  0  0  0  0
  2 17  1  0  0  0  0
  3 18  1  0  0  0  0
  3 19  1  0  0  0  0
  3 20  1  0  0  0  0
  7 21  1  0  0  0  0
  8 22  1  0  0  0  0
  9 23  1  0  0  0  0
 10 24  1  0  0  0  0
 10 25  1  0  0  0  0
 11 26  1  0  0  0  0
 11 27  1  0  0  0  0
 12 28  1  0  0  0  0
 12 29  1  0  0  0  0
 12 30  1  0  0  0  0
 13 31  1  0  0  0  0
M  END
$$$$
