C7H5Cl2NO
APtclcactv12151716133D 0   0.00000     0.00000
 
 16 16  0  0  0  0  0  0  0  0999 V2000
   -2.7154    0.2221    0.0176 Cl  0  0  0  0  0  0  0  0  0  0  0  0
   -1.2082   -0.6391    0.0008 C   0  0  0  0  0  0  0  0  0  0  0  0
   -0.0000    0.0630    0.0151 C   0  0  0  0  0  0  0  0  0  0  0  0
    0.0000    1.5397    0.0450 C   0  0  0  0  0  0  0  0  0  0  0  0
   -0.0001    2.1260    1.1100 O   0  0  0  0  0  0  0  0  0  0  0  0
    0.0001    2.2370   -1.1083 N   0  0  0  0  0  0  0  0  0  0  0  0
    1.2082   -0.6391    0.0014 C   0  0  0  0  0  0  0  0  0  0  0  0
    1.2000   -2.0197   -0.0261 C   0  0  0  0  0  0  0  0  0  0  0  0
   -0.0000   -2.7077   -0.0406 C   0  0  0  0  0  0  0  0  0  0  0  0
   -1.2000   -2.0198   -0.0209 C   0  0  0  0  0  0  0  0  0  0  0  0
    2.7154    0.2221    0.0184 Cl  0  0  0  0  0  0  0  0  0  0  0  0
    0.0001    1.7692   -1.9580 H   0  0  0  0  0  0  0  0  0  0  0  0
    0.0001    3.2068   -1.0886 H   0  0  0  0  0  0  0  0  0  0  0  0
    2.1329   -2.5638   -0.0367 H   0  0  0  0  0  0  0  0  0  0  0  0
   -0.0000   -3.7874   -0.0628 H   0  0  0  0  0  0  0  0  0  0  0  0
   -2.1329   -2.5638   -0.0320 H   0  0  0  0  0  0  0  0  0  0  0  0
  1  2  1  0  0  0  0
  2  3  2  0  0  0  0
  3  4  1  0  0  0  0
  4  5  2  0  0  0  0
  4  6  1  0  0  0  0
  3  7  1  0  0  0  0
  7  8  2  0  0  0  0
  8  9  1  0  0  0  0
  9 10  2  0  0  0  0
  2 10  1  0  0  0  0
  7 11  1  0  0  0  0
  6 12  1  0  0  0  0
  6 13  1  0  0  0  0
  8 14  1  0  0  0  0
  9 15  1  0  0  0  0
 10 16  1  0  0  0  0
M  END
$$$$
