C8H6Cl2O3
APtclcactv12151716253D 0   0.00000     0.00000
 
 19 19  0  0  0  0  0  0  0  0999 V2000
   -0.4831   -2.7060    0.2088 Cl  0  0  0  0  0  0  0  0  0  0  0  0
   -1.3292   -1.2012    0.0259 C   0  0  0  0  0  0  0  0  0  0  0  0
   -0.6496   -0.0000    0.1725 C   0  0  0  0  0  0  0  0  0  0  0  0
    0.6792    0.0001    0.4595 O   0  0  0  0  0  0  0  0  0  0  0  0
    1.5821   -0.0000   -0.6482 C   0  0  0  0  0  0  0  0  0  0  0  0
    3.0008    0.0001   -0.1398 C   0  0  0  0  0  0  0  0  0  0  0  0
    3.2165    0.0003    1.0490 O   0  0  0  0  0  0  0  0  0  0  0  0
    4.0247    0.0000   -1.0078 O   0  0  0  0  0  0  0  0  0  0  0  0
   -1.3292    1.2011    0.0251 C   0  0  0  0  0  0  0  0  0  0  0  0
   -2.6806    1.1980   -0.2672 C   0  0  0  0  0  0  0  0  0  0  0  0
   -3.3550   -0.0002   -0.4126 C   0  0  0  0  0  0  0  0  0  0  0  0
   -2.6795   -1.1983   -0.2715 C   0  0  0  0  0  0  0  0  0  0  0  0
   -0.4834    2.7060    0.2081 Cl  0  0  0  0  0  0  0  0  0  0  0  0
    1.4134   -0.8901   -1.2543 H   0  0  0  0  0  0  0  0  0  0  0  0
    1.4134    0.8898   -1.2546 H   0  0  0  0  0  0  0  0  0  0  0  0
    4.9167    0.0001   -0.6344 H   0  0  0  0  0  0  0  0  0  0  0  0
   -3.2100    2.1323   -0.3816 H   0  0  0  0  0  0  0  0  0  0  0  0
   -4.4105   -0.0003   -0.6409 H   0  0  0  0  0  0  0  0  0  0  0  0
   -3.2088   -2.1327   -0.3856 H   0  0  0  0  0  0  0  0  0  0  0  0
  1  2  1  0  0  0  0
  2  3  2  0  0  0  0
  3  4  1  0  0  0  0
  4  5  1  0  0  0  0
  5  6  1  0  0  0  0
  6  7  2  0  0  0  0
  6  8  1  0  0  0  0
  3  9  1  0  0  0  0
  9 10  2  0  0  0  0
 10 11  1  0  0  0  0
 11 12  2  0  0  0  0
  2 12  1  0  0  0  0
  9 13  1  0  0  0  0
  5 14  1  0  0  0  0
  5 15  1  0  0  0  0
  8 16  1  0  0  0  0
 10 17  1  0  0  0  0
 11 18  1  0  0  0  0
 12 19  1  0  0  0  0
M  END
$$$$
