C6H4N4O2
APtclcactv12211716503D 0   0.00000     0.00000
 
 16 17  0  0  0  0  0  0  0  0999 V2000
    3.6879    0.4495   -0.0352 O   0  0  0  0  0  0  0  0  0  0  0  0
    2.3851    0.0801   -0.0213 C   0  0  0  0  0  0  0  0  0  0  0  0
    1.4621    1.0192   -0.0188 N   0  0  0  0  0  0  0  0  0  0  0  0
    0.1645    0.6919   -0.0051 C   0  0  0  0  0  0  0  0  0  0  0  0
   -0.7946    1.6229   -0.0028 N   0  0  0  0  0  0  0  0  0  0  0  0
   -2.0561    1.2578    0.0104 C   0  0  0  0  0  0  0  0  0  0  0  0
   -2.4089   -0.1009    0.0221 C   0  0  0  0  0  0  0  0  0  0  0  0
   -1.4782   -1.0346    0.0204 N   0  0  0  0  0  0  0  0  0  0  0  0
   -0.1910   -0.6805    0.0066 C   0  0  0  0  0  0  0  0  0  0  0  0
    0.8427   -1.6381    0.0046 C   0  0  0  0  0  0  0  0  0  0  0  0
    2.0895   -1.2167   -0.0160 N   0  0  0  0  0  0  0  0  0  0  0  0
   -3.7177   -0.4560    0.0357 O   0  0  0  0  0  0  0  0  0  0  0  0
    4.0742    0.5623    0.8440 H   0  0  0  0  0  0  0  0  0  0  0  0
   -2.8303    2.0109    0.0126 H   0  0  0  0  0  0  0  0  0  0  0  0
    0.6170   -2.6942    0.0142 H   0  0  0  0  0  0  0  0  0  0  0  0
   -4.1050   -0.5645   -0.8437 H   0  0  0  0  0  0  0  0  0  0  0  0
  1  2  1  0  0  0  0
  2  3  2  0  0  0  0
  3  4  1  0  0  0  0
  4  5  2  0  0  0  0
  5  6  1  0  0  0  0
  6  7  2  0  0  0  0
  7  8  1  0  0  0  0
  8  9  2  0  0  0  0
  4  9  1  0  0  0  0
  9 10  1  0  0  0  0
 10 11  2  0  0  0  0
  2 11  1  0  0  0  0
  7 12  1  0  0  0  0
  1 13  1  0  0  0  0
  6 14  1  0  0  0  0
 10 15  1  0  0  0  0
 12 16  1  0  0  0  0
M  END
$$$$
