C7H6O4
APtclcactv12151716163D 0   0.00000     0.00000
 
 17 17  0  0  0  0  0  0  0  0999 V2000
    0.1099    2.3902    0.0699 O   0  0  0  0  0  0  0  0  0  0  0  0
   -0.5616    1.2123    0.0293 C   0  0  0  0  0  0  0  0  0  0  0  0
    0.1439   -0.0006    0.0221 C   0  0  0  0  0  0  0  0  0  0  0  0
    1.6143   -0.0026    0.0584 C   0  0  0  0  0  0  0  0  0  0  0  0
    2.1959   -0.0248    1.1254 O   0  0  0  0  0  0  0  0  0  0  0  0
    2.3169    0.0203   -1.0917 O   0  0  0  0  0  0  0  0  0  0  0  0
   -0.5636   -1.2116   -0.0196 C   0  0  0  0  0  0  0  0  0  0  0  0
   -1.9485   -1.1978   -0.0531 C   0  0  0  0  0  0  0  0  0  0  0  0
   -2.6333    0.0032   -0.0456 C   0  0  0  0  0  0  0  0  0  0  0  0
   -1.9466    1.2022    0.0007 C   0  0  0  0  0  0  0  0  0  0  0  0
    0.1058   -2.3913   -0.0275 O   0  0  0  0  0  0  0  0  0  0  0  0
    0.3264    2.7498   -0.8012 H   0  0  0  0  0  0  0  0  0  0  0  0
    3.2810    0.0179   -1.0173 H   0  0  0  0  0  0  0  0  0  0  0  0
   -2.4952   -2.1286   -0.0855 H   0  0  0  0  0  0  0  0  0  0  0  0
   -3.7130    0.0046   -0.0718 H   0  0  0  0  0  0  0  0  0  0  0  0
   -2.4916    2.1345    0.0062 H   0  0  0  0  0  0  0  0  0  0  0  0
    0.2787   -2.7513    0.8531 H   0  0  0  0  0  0  0  0  0  0  0  0
  1  2  1  0  0  0  0
  2  3  2  0  0  0  0
  3  4  1  0  0  0  0
  4  5  2  0  0  0  0
  4  6  1  0  0  0  0
  3  7  1  0  0  0  0
  7  8  2  0  0  0  0
  8  9  1  0  0  0  0
  9 10  2  0  0  0  0
  2 10  1  0  0  0  0
  7 11  1  0  0  0  0
  1 12  1  0  0  0  0
  6 13  1  0  0  0  0
  8 14  1  0  0  0  0
  9 15  1  0  0  0  0
 10 16  1  0  0  0  0
 11 17  1  0  0  0  0
M  END
$$$$
