C6H12N2O2
APtclcactv12211716573D 0   0.00000     0.00000
 
 22 22  0  0  0  0  0  0  0  0999 V2000
   -0.9674   -0.4089    1.5523 C   0  0  0  0  0  0  0  0  0  0  0  0
   -0.7978   -0.2490    0.0401 C   0  0  0  0  0  0  0  0  0  0  0  0
    0.0843    0.8442   -0.2285 O   0  0  0  0  0  0  0  0  0  0  0  0
    1.3991    0.6678    0.3060 C   0  0  0  0  0  0  0  0  0  0  0  0
    2.0148   -0.6066   -0.2778 C   0  0  0  0  0  0  0  0  0  0  0  0
    1.1365   -1.7482    0.0165 N   0  0  0  0  0  0  0  0  0  0  0  0
   -0.2044   -1.5326   -0.5464 C   0  0  0  0  0  0  0  0  0  0  0  0
    2.2674    1.8714   -0.0657 C   0  0  0  0  0  0  0  0  0  0  0  0
   -2.1021    0.0128   -0.5734 N   0  0  0  0  0  0  0  0  0  0  0  0
   -2.7440    0.9943   -0.2443 O   0  0  0  0  0  0  0  0  0  0  0  0
   -1.3863    0.5066    1.9698 H   0  0  0  0  0  0  0  0  0  0  0  0
   -1.6398   -1.2422    1.7564 H   0  0  0  0  0  0  0  0  0  0  0  0
    0.0032   -0.6052    2.0080 H   0  0  0  0  0  0  0  0  0  0  0  0
    1.3421    0.5805    1.3910 H   0  0  0  0  0  0  0  0  0  0  0  0
    2.1211   -0.4979   -1.3571 H   0  0  0  0  0  0  0  0  0  0  0  0
    2.9941   -0.7758    0.1699 H   0  0  0  0  0  0  0  0  0  0  0  0
    1.5371   -2.6096   -0.3234 H   0  0  0  0  0  0  0  0  0  0  0  0
   -0.8450   -2.3779   -0.2947 H   0  0  0  0  0  0  0  0  0  0  0  0
   -0.1335   -1.4388   -1.6300 H   0  0  0  0  0  0  0  0  0  0  0  0
    1.8265    2.7788    0.3469 H   0  0  0  0  0  0  0  0  0  0  0  0
    3.2693    1.7364    0.3419 H   0  0  0  0  0  0  0  0  0  0  0  0
    2.3251    1.9565   -1.1509 H   0  0  0  0  0  0  0  0  0  0  0  0
  1  2  1  0  0  0  0
  2  3  1  0  0  0  0
  3  4  1  0  0  0  0
  4  5  1  0  0  0  0
  5  6  1  0  0  0  0
  6  7  1  0  0  0  0
  2  7  1  0  0  0  0
  4  8  1  0  0  0  0
  2  9  1  0  0  0  0
  9 10  2  0  0  0  0
  1 11  1  0  0  0  0
  1 12  1  0  0  0  0
  1 13  1  0  0  0  0
  4 14  1  0  0  0  0
  5 15  1  0  0  0  0
  5 16  1  0  0  0  0
  6 17  1  0  0  0  0
  7 18  1  0  0  0  0
  7 19  1  0  0  0  0
  8 20  1  0  0  0  0
  8 21  1  0  0  0  0
  8 22  1  0  0  0  0
M  END
$$$$
