C7H4Cl2O2
APtclcactv12151716123D 0   0.00000     0.00000
 
 15 15  0  0  0  0  0  0  0  0999 V2000
   -2.7160    0.2082    0.0195 Cl  0  0  0  0  0  0  0  0  0  0  0  0
   -1.2086   -0.6527   -0.0007 C   0  0  0  0  0  0  0  0  0  0  0  0
   -0.0000    0.0497    0.0161 C   0  0  0  0  0  0  0  0  0  0  0  0
    0.0000    1.5250    0.0511 C   0  0  0  0  0  0  0  0  0  0  0  0
   -0.0001    2.1073    1.1173 O   0  0  0  0  0  0  0  0  0  0  0  0
    0.0002    2.2260   -1.0995 O   0  0  0  0  0  0  0  0  0  0  0  0
    1.2086   -0.6527    0.0002 C   0  0  0  0  0  0  0  0  0  0  0  0
    1.2001   -2.0332   -0.0320 C   0  0  0  0  0  0  0  0  0  0  0  0
   -0.0000   -2.7210   -0.0485 C   0  0  0  0  0  0  0  0  0  0  0  0
   -1.2002   -2.0332   -0.0276 C   0  0  0  0  0  0  0  0  0  0  0  0
    2.7159    0.2082    0.0202 Cl  0  0  0  0  0  0  0  0  0  0  0  0
    0.0002    3.1902   -1.0260 H   0  0  0  0  0  0  0  0  0  0  0  0
    2.1330   -2.5773   -0.0448 H   0  0  0  0  0  0  0  0  0  0  0  0
   -0.0000   -3.8007   -0.0737 H   0  0  0  0  0  0  0  0  0  0  0  0
   -2.1330   -2.5773   -0.0406 H   0  0  0  0  0  0  0  0  0  0  0  0
  1  2  1  0  0  0  0
  2  3  2  0  0  0  0
  3  4  1  0  0  0  0
  4  5  2  0  0  0  0
  4  6  1  0  0  0  0
  3  7  1  0  0  0  0
  7  8  2  0  0  0  0
  8  9  1  0  0  0  0
  9 10  2  0  0  0  0
  2 10  1  0  0  0  0
  7 11  1  0  0  0  0
  6 12  1  0  0  0  0
  8 13  1  0  0  0  0
  9 14  1  0  0  0  0
 10 15  1  0  0  0  0
M  END
$$$$
