C11H11N
APtclcactv12211717323D 0   0.00000     0.00000
 
 23 24  0  0  0  0  0  0  0  0999 V2000
    3.6145    1.2234    0.0008 C   0  0  0  0  0  0  0  0  0  0  0  0
    2.3289    0.4371    0.0008 C   0  0  0  0  0  0  0  0  0  0  0  0
    1.1872    1.0811    0.0006 N   0  0  0  0  0  0  0  0  0  0  0  0
    0.0209    0.4277    0.0006 C   0  0  0  0  0  0  0  0  0  0  0  0
   -1.2005    1.1235   -0.0001 C   0  0  0  0  0  0  0  0  0  0  0  0
   -2.3722    0.4310   -0.0005 C   0  0  0  0  0  0  0  0  0  0  0  0
   -2.3839   -0.9621   -0.0001 C   0  0  0  0  0  0  0  0  0  0  0  0
   -1.2210   -1.6706    0.0010 C   0  0  0  0  0  0  0  0  0  0  0  0
    0.0064   -0.9893    0.0009 C   0  0  0  0  0  0  0  0  0  0  0  0
    1.2307   -1.6843    0.0015 C   0  0  0  0  0  0  0  0  0  0  0  0
    2.3855   -0.9551   -0.0047 C   0  0  0  0  0  0  0  0  0  0  0  0
   -3.6780    1.1833   -0.0008 C   0  0  0  0  0  0  0  0  0  0  0  0
    3.9244    1.4132    1.0284 H   0  0  0  0  0  0  0  0  0  0  0  0
    4.3889    0.6537   -0.5129 H   0  0  0  0  0  0  0  0  0  0  0  0
    3.4601    2.1721   -0.5132 H   0  0  0  0  0  0  0  0  0  0  0  0
   -1.2091    2.2035   -0.0001 H   0  0  0  0  0  0  0  0  0  0  0  0
   -3.3277   -1.4871   -0.0004 H   0  0  0  0  0  0  0  0  0  0  0  0
   -1.2428   -2.7504    0.0017 H   0  0  0  0  0  0  0  0  0  0  0  0
    1.2560   -2.7640    0.0028 H   0  0  0  0  0  0  0  0  0  0  0  0
    3.3418   -1.4572   -0.0047 H   0  0  0  0  0  0  0  0  0  0  0  0
   -3.9925    1.3647   -1.0285 H   0  0  0  0  0  0  0  0  0  0  0  0
   -4.4372    0.5935    0.5128 H   0  0  0  0  0  0  0  0  0  0  0  0
   -3.5486    2.1358    0.5131 H   0  0  0  0  0  0  0  0  0  0  0  0
  1  2  1  0  0  0  0
  2  3  2  0  0  0  0
  3  4  1  0  0  0  0
  4  5  2  0  0  0  0
  5  6  1  0  0  0  0
  6  7  2  0  0  0  0
  7  8  1  0  0  0  0
  8  9  2  0  0  0  0
  4  9  1  0  0  0  0
  9 10  1  0  0  0  0
 10 11  2  0  0  0  0
  2 11  1  0  0  0  0
  6 12  1  0  0  0  0
  1 13  1  0  0  0  0
  1 14  1  0  0  0  0
  1 15  1  0  0  0  0
  5 16  1  0  0  0  0
  7 17  1  0  0  0  0
  8 18  1  0  0  0  0
 10 19  1  0  0  0  0
 11 20  1  0  0  0  0
 12 21  1  0  0  0  0
 12 22  1  0  0  0  0
 12 23  1  0  0  0  0
M  END
$$$$
