C12H6Cl2O2
APtclcactv12111704523D 0   0.00000     0.00000
 
 22 24  0  0  0  0  0  0  0  0999 V2000
   -5.0800    1.1308   -0.0005 Cl  0  0  0  0  0  0  0  0  0  0  0  0
   -3.5754    0.2648   -0.0008 C   0  0  0  0  0  0  0  0  0  0  0  0
   -2.3783    0.9598   -0.0005 C   0  0  0  0  0  0  0  0  0  0  0  0
   -1.1778    0.2693   -0.0003 C   0  0  0  0  0  0  0  0  0  0  0  0
   -1.1779   -1.1221   -0.0005 C   0  0  0  0  0  0  0  0  0  0  0  0
    0.0000   -1.8027   -0.0008 O   0  0  0  0  0  0  0  0  0  0  0  0
    1.1779   -1.1221   -0.0002 C   0  0  0  0  0  0  0  0  0  0  0  0
    1.1778    0.2694    0.0000 C   0  0  0  0  0  0  0  0  0  0  0  0
   -0.0000    0.9497    0.0005 O   0  0  0  0  0  0  0  0  0  0  0  0
    2.3783    0.9598    0.0002 C   0  0  0  0  0  0  0  0  0  0  0  0
    3.5754    0.2648    0.0001 C   0  0  0  0  0  0  0  0  0  0  0  0
    3.5750   -1.1183   -0.0005 C   0  0  0  0  0  0  0  0  0  0  0  0
    2.3785   -1.8124   -0.0002 C   0  0  0  0  0  0  0  0  0  0  0  0
    5.0800    1.1308    0.0003 Cl  0  0  0  0  0  0  0  0  0  0  0  0
   -2.3785   -1.8124   -0.0008 C   0  0  0  0  0  0  0  0  0  0  0  0
   -3.5750   -1.1183    0.0043 C   0  0  0  0  0  0  0  0  0  0  0  0
   -2.3805    2.0398   -0.0007 H   0  0  0  0  0  0  0  0  0  0  0  0
    2.3806    2.0398   -0.0000 H   0  0  0  0  0  0  0  0  0  0  0  0
    4.5108   -1.6575   -0.0009 H   0  0  0  0  0  0  0  0  0  0  0  0
    2.3806   -2.8924   -0.0011 H   0  0  0  0  0  0  0  0  0  0  0  0
   -2.3806   -2.8924   -0.0010 H   0  0  0  0  0  0  0  0  0  0  0  0
   -4.5108   -1.6575    0.0040 H   0  0  0  0  0  0  0  0  0  0  0  0
  1  2  1  0  0  0  0
  2  3  2  0  0  0  0
  3  4  1  0  0  0  0
  4  5  2  0  0  0  0
  5  6  1  0  0  0  0
  6  7  1  0  0  0  0
  7  8  2  0  0  0  0
  8  9  1  0  0  0  0
  4  9  1  0  0  0  0
  8 10  1  0  0  0  0
 10 11  2  0  0  0  0
 11 12  1  0  0  0  0
 12 13  2  0  0  0  0
  7 13  1  0  0  0  0
 11 14  1  0  0  0  0
  5 15  1  0  0  0  0
 15 16  2  0  0  0  0
  2 16  1  0  0  0  0
  3 17  1  0  0  0  0
 10 18  1  0  0  0  0
 12 19  1  0  0  0  0
 13 20  1  0  0  0  0
 15 21  1  0  0  0  0
 16 22  1  0  0  0  0
M  END
$$$$
