C13H17NO3
APtclcactv12071713273D 0   0.00000     0.00000
 
 34 35  0  0  0  0  0  0  0  0999 V2000
   -3.6242   -0.6692    0.6216 N   0  0  0  0  0  0  0  0  0  0  0  0
   -4.6048   -0.2664   -0.2107 C   0  0  0  0  0  0  0  0  0  0  0  0
   -4.3792    0.5813   -1.0484 O   0  0  0  0  0  0  0  0  0  0  0  0
   -5.9816   -0.8692   -0.1006 C   0  0  0  0  0  0  0  0  0  0  0  0
   -2.3213   -0.1809    0.4572 C   0  0  0  0  0  0  0  0  0  0  0  0
   -2.1174    1.1250    0.0317 C   0  0  0  0  0  0  0  0  0  0  0  0
   -0.8330    1.6057   -0.1296 C   0  0  0  0  0  0  0  0  0  0  0  0
    0.2535    0.7841    0.1329 C   0  0  0  0  0  0  0  0  0  0  0  0
    1.5179    1.2581   -0.0262 O   0  0  0  0  0  0  0  0  0  0  0  0
    2.5894    0.3576    0.2620 C   0  0  0  0  0  0  0  0  0  0  0  0
    2.6370   -0.6621   -0.7381 O   0  0  0  0  0  0  0  0  0  0  0  0
    3.6622   -1.6356   -0.5304 C   0  0  0  0  0  0  0  0  0  0  0  0
    5.0297   -0.9478   -0.5549 C   0  0  0  0  0  0  0  0  0  0  0  0
    5.0628    0.1439    0.5190 C   0  0  0  0  0  0  0  0  0  0  0  0
    3.9137    1.1255    0.2693 C   0  0  0  0  0  0  0  0  0  0  0  0
    0.0505   -0.5206    0.5580 C   0  0  0  0  0  0  0  0  0  0  0  0
   -1.2333   -1.0008    0.7252 C   0  0  0  0  0  0  0  0  0  0  0  0
   -3.8214   -1.2940    1.3369 H   0  0  0  0  0  0  0  0  0  0  0  0
   -6.5807   -0.2820    0.5953 H   0  0  0  0  0  0  0  0  0  0  0  0
   -6.4582   -0.8682   -1.0808 H   0  0  0  0  0  0  0  0  0  0  0  0
   -5.9016   -1.8935    0.2635 H   0  0  0  0  0  0  0  0  0  0  0  0
   -2.9633    1.7645   -0.1733 H   0  0  0  0  0  0  0  0  0  0  0  0
   -0.6744    2.6214   -0.4606 H   0  0  0  0  0  0  0  0  0  0  0  0
    2.4281   -0.0985    1.2388 H   0  0  0  0  0  0  0  0  0  0  0  0
    3.5152   -2.1178    0.4361 H   0  0  0  0  0  0  0  0  0  0  0  0
    3.6178   -2.3847   -1.3210 H   0  0  0  0  0  0  0  0  0  0  0  0
    5.8101   -1.6814   -0.3528 H   0  0  0  0  0  0  0  0  0  0  0  0
    5.1945   -0.4999   -1.5349 H   0  0  0  0  0  0  0  0  0  0  0  0
    4.9475   -0.3095    1.5035 H   0  0  0  0  0  0  0  0  0  0  0  0
    6.0134    0.6750    0.4699 H   0  0  0  0  0  0  0  0  0  0  0  0
    4.0561    1.6153   -0.6940 H   0  0  0  0  0  0  0  0  0  0  0  0
    3.8961    1.8747    1.0608 H   0  0  0  0  0  0  0  0  0  0  0  0
    0.8969   -1.1598    0.7618 H   0  0  0  0  0  0  0  0  0  0  0  0
   -1.3912   -2.0167    1.0562 H   0  0  0  0  0  0  0  0  0  0  0  0
  1  2  1  0  0  0  0
  2  3  2  0  0  0  0
  2  4  1  0  0  0  0
  1  5  1  0  0  0  0
  5  6  2  0  0  0  0
  6  7  1  0  0  0  0
  7  8  2  0  0  0  0
  8  9  1  0  0  0  0
  9 10  1  0  0  0  0
 10 11  1  0  0  0  0
 11 12  1  0  0  0  0
 12 13  1  0  0  0  0
 13 14  1  0  0  0  0
 14 15  1  0  0  0  0
 10 15  1  0  0  0  0
  8 16  1  0  0  0  0
 16 17  2  0  0  0  0
  5 17  1  0  0  0  0
  1 18  1  0  0  0  0
  4 19  1  0  0  0  0
  4 20  1  0  0  0  0
  4 21  1  0  0  0  0
  6 22  1  0  0  0  0
  7 23  1  0  0  0  0
 10 24  1  0  0  0  0
 12 25  1  0  0  0  0
 12 26  1  0  0  0  0
 13 27  1  0  0  0  0
 13 28  1  0  0  0  0
 14 29  1  0  0  0  0
 14 30  1  0  0  0  0
 15 31  1  0  0  0  0
 15 32  1  0  0  0  0
 16 33  1  0  0  0  0
 17 34  1  0  0  0  0
M  END
$$$$
