C12H6Cl3NO3
APtclcactv12111704523D 0   0.00000     0.00000
 
 25 26  0  0  0  0  0  0  0  0999 V2000
   -3.9110   -0.1487    1.4700 Cl  0  0  0  0  0  0  0  0  0  0  0  0
   -3.4317    0.1590   -0.2407 C   0  0  0  0  0  0  0  0  0  0  0  0
   -1.9392    0.0034   -0.3799 C   0  0  0  0  0  0  0  0  0  0  0  0
   -1.4836   -0.7631   -1.2018 O   0  0  0  0  0  0  0  0  0  0  0  0
   -1.1109    0.7161    0.4089 N   0  0  0  0  0  0  0  0  0  0  0  0
    0.2566    0.4972    0.3547 C   0  0  0  0  0  0  0  0  0  0  0  0
    0.7990   -0.8576    0.6175 C   0  0  0  0  0  0  0  0  0  0  0  0
    2.2057   -1.1507    0.2644 C   0  0  0  0  0  0  0  0  0  0  0  0
    2.6809   -2.4548    0.2290 C   0  0  0  0  0  0  0  0  0  0  0  0
    4.0054   -2.6944   -0.1058 C   0  0  0  0  0  0  0  0  0  0  0  0
    4.8529   -1.6454   -0.4039 C   0  0  0  0  0  0  0  0  0  0  0  0
    4.3917   -0.3372   -0.3726 C   0  0  0  0  0  0  0  0  0  0  0  0
    3.0692   -0.0818   -0.0400 C   0  0  0  0  0  0  0  0  0  0  0  0
    2.5441    1.3024    0.0031 C   0  0  0  0  0  0  0  0  0  0  0  0
    1.0923    1.5200    0.0564 C   0  0  0  0  0  0  0  0  0  0  0  0
    0.4453    3.1015   -0.2498 Cl  0  0  0  0  0  0  0  0  0  0  0  0
    3.3074    2.2489   -0.0109 O   0  0  0  0  0  0  0  0  0  0  0  0
    0.0983   -1.7150    1.1163 O   0  0  0  0  0  0  0  0  0  0  0  0
   -4.2625   -1.0228   -1.3195 Cl  0  0  0  0  0  0  0  0  0  0  0  0
   -3.7192    1.1721   -0.5219 H   0  0  0  0  0  0  0  0  0  0  0  0
   -1.4718    1.3823    1.0146 H   0  0  0  0  0  0  0  0  0  0  0  0
    2.0225   -3.2787    0.4616 H   0  0  0  0  0  0  0  0  0  0  0  0
    4.3766   -3.7083   -0.1333 H   0  0  0  0  0  0  0  0  0  0  0  0
    5.8822   -1.8449   -0.6630 H   0  0  0  0  0  0  0  0  0  0  0  0
    5.0594    0.4789   -0.6062 H   0  0  0  0  0  0  0  0  0  0  0  0
  1  2  1  0  0  0  0
  2  3  1  0  0  0  0
  3  4  2  0  0  0  0
  3  5  1  0  0  0  0
  5  6  1  0  0  0  0
  6  7  1  0  0  0  0
  7  8  1  0  0  0  0
  8  9  2  0  0  0  0
  9 10  1  0  0  0  0
 10 11  2  0  0  0  0
 11 12  1  0  0  0  0
 12 13  2  0  0  0  0
  8 13  1  0  0  0  0
 13 14  1  0  0  0  0
 14 15  1  0  0  0  0
  6 15  2  0  0  0  0
 15 16  1  0  0  0  0
 14 17  2  0  0  0  0
  7 18  2  0  0  0  0
  2 19  1  0  0  0  0
  2 20  1  0  0  0  0
  5 21  1  0  0  0  0
  9 22  1  0  0  0  0
 10 23  1  0  0  0  0
 11 24  1  0  0  0  0
 12 25  1  0  0  0  0
M  END
$$$$
