C18H16N4O3S
APtclcactv12211717163D 0   0.00000     0.00000
 
 42 44  0  0  0  0  0  0  0  0999 V2000
   -5.4992   -2.3019    0.2509 C   0  0  0  0  0  0  0  0  0  0  0  0
   -6.4235   -3.4629   -0.0116 C   0  0  0  0  0  0  0  0  0  0  0  0
   -5.8016   -1.4590    1.0689 O   0  0  0  0  0  0  0  0  0  0  0  0
   -4.3341   -2.2032   -0.4193 N   0  0  0  0  0  0  0  0  0  0  0  0
   -3.5214   -1.0772   -0.2476 C   0  0  0  0  0  0  0  0  0  0  0  0
   -3.4430   -0.4582    0.9931 C   0  0  0  0  0  0  0  0  0  0  0  0
   -2.6400    0.6531    1.1593 C   0  0  0  0  0  0  0  0  0  0  0  0
   -1.9149    1.1498    0.0917 C   0  0  0  0  0  0  0  0  0  0  0  0
   -0.8920    2.5682    0.3078 S   0  0  0  0  0  0  0  0  0  0  0  0
   -0.7386    3.1519   -0.9786 O   0  0  0  0  0  0  0  0  0  0  0  0
   -1.4156    3.2742    1.4243 O   0  0  0  0  0  0  0  0  0  0  0  0
    0.6072    2.0274    0.7577 N   0  0  0  0  0  0  0  0  0  0  0  0
    1.3622    1.2701   -0.1210 C   0  0  0  0  0  0  0  0  0  0  0  0
    1.0211    1.2353   -1.4010 N   0  0  0  0  0  0  0  0  0  0  0  0
    1.7176    0.5230   -2.2726 C   0  0  0  0  0  0  0  0  0  0  0  0
    2.8171   -0.1939   -1.8359 C   0  0  0  0  0  0  0  0  0  0  0  0
    3.1527   -0.1381   -0.4805 C   0  0  0  0  0  0  0  0  0  0  0  0
    2.4098    0.6035    0.3378 N   0  0  0  0  0  0  0  0  0  0  0  0
    4.3223   -0.8888    0.0371 C   0  0  0  0  0  0  0  0  0  0  0  0
    5.1532   -0.3142    0.9975 C   0  0  0  0  0  0  0  0  0  0  0  0
    6.2402   -1.0175    1.4755 C   0  0  0  0  0  0  0  0  0  0  0  0
    6.5058   -2.2903    1.0033 C   0  0  0  0  0  0  0  0  0  0  0  0
    5.6847   -2.8655    0.0502 C   0  0  0  0  0  0  0  0  0  0  0  0
    4.5916   -2.1738   -0.4308 C   0  0  0  0  0  0  0  0  0  0  0  0
   -1.9904    0.5355   -1.1449 C   0  0  0  0  0  0  0  0  0  0  0  0
   -2.7871   -0.5795   -1.3162 C   0  0  0  0  0  0  0  0  0  0  0  0
   -7.3060   -3.3752    0.6221 H   0  0  0  0  0  0  0  0  0  0  0  0
   -6.7260   -3.4569   -1.0587 H   0  0  0  0  0  0  0  0  0  0  0  0
   -5.9069   -4.3963    0.2121 H   0  0  0  0  0  0  0  0  0  0  0  0
   -4.0589   -2.9128   -1.0207 H   0  0  0  0  0  0  0  0  0  0  0  0
   -4.0097   -0.8453    1.8270 H   0  0  0  0  0  0  0  0  0  0  0  0
   -2.5786    1.1348    2.1239 H   0  0  0  0  0  0  0  0  0  0  0  0
    0.9562    2.2414    1.6371 H   0  0  0  0  0  0  0  0  0  0  0  0
    1.4303    0.5015   -3.3135 H   0  0  0  0  0  0  0  0  0  0  0  0
    3.4022   -0.7834   -2.5263 H   0  0  0  0  0  0  0  0  0  0  0  0
    4.9469    0.6796    1.3666 H   0  0  0  0  0  0  0  0  0  0  0  0
    6.8848   -0.5731    2.2193 H   0  0  0  0  0  0  0  0  0  0  0  0
    7.3578   -2.8368    1.3799 H   0  0  0  0  0  0  0  0  0  0  0  0
    5.8970   -3.8594   -0.3151 H   0  0  0  0  0  0  0  0  0  0  0  0
    3.9511   -2.6239   -1.1749 H   0  0  0  0  0  0  0  0  0  0  0  0
   -1.4228    0.9259   -1.9766 H   0  0  0  0  0  0  0  0  0  0  0  0
   -2.8454   -1.0591   -2.2821 H   0  0  0  0  0  0  0  0  0  0  0  0
  1  2  1  0  0  0  0
  1  3  2  0  0  0  0
  1  4  1  0  0  0  0
  4  5  1  0  0  0  0
  5  6  2  0  0  0  0
  6  7  1  0  0  0  0
  7  8  2  0  0  0  0
  8  9  1  0  0  0  0
  9 10  2  0  0  0  0
  9 11  2  0  0  0  0
  9 12  1  0  0  0  0
 12 13  1  0  0  0  0
 13 14  2  0  0  0  0
 14 15  1  0  0  0  0
 15 16  2  0  0  0  0
 16 17  1  0  0  0  0
 17 18  2  0  0  0  0
 13 18  1  0  0  0  0
 17 19  1  0  0  0  0
 19 20  2  0  0  0  0
 20 21  1  0  0  0  0
 21 22  2  0  0  0  0
 22 23  1  0  0  0  0
 23 24  2  0  0  0  0
 19 24  1  0  0  0  0
  8 25  1  0  0  0  0
 25 26  2  0  0  0  0
  5 26  1  0  0  0  0
  2 27  1  0  0  0  0
  2 28  1  0  0  0  0
  2 29  1  0  0  0  0
  4 30  1  0  0  0  0
  6 31  1  0  0  0  0
  7 32  1  0  0  0  0
 12 33  1  0  0  0  0
 15 34  1  0  0  0  0
 16 35  1  0  0  0  0
 20 36  1  0  0  0  0
 21 37  1  0  0  0  0
 22 38  1  0  0  0  0
 23 39  1  0  0  0  0
 24 40  1  0  0  0  0
 25 41  1  0  0  0  0
 26 42  1  0  0  0  0
M  END
$$$$
