C15H18N4O3S
APtclcactv12211717083D 0   0.00000     0.00000
 
 41 42  0  0  0  0  0  0  0  0999 V2000
   -5.3616    1.5640   -0.3027 C   0  0  0  0  0  0  0  0  0  0  0  0
   -6.4916    2.5385   -0.0916 C   0  0  0  0  0  0  0  0  0  0  0  0
   -5.5058    0.6213   -1.0521 O   0  0  0  0  0  0  0  0  0  0  0  0
   -4.1889    1.7431    0.3370 N   0  0  0  0  0  0  0  0  0  0  0  0
   -3.1737    0.7877    0.2174 C   0  0  0  0  0  0  0  0  0  0  0  0
   -2.9957    0.1076   -0.9802 C   0  0  0  0  0  0  0  0  0  0  0  0
   -1.9927   -0.8349   -1.0950 C   0  0  0  0  0  0  0  0  0  0  0  0
   -1.1665   -1.1021   -0.0188 C   0  0  0  0  0  0  0  0  0  0  0  0
    0.1115   -2.3057   -0.1692 S   0  0  0  0  0  0  0  0  0  0  0  0
    0.3979   -2.7537    1.1486 O   0  0  0  0  0  0  0  0  0  0  0  0
   -0.2815   -3.1793   -1.2187 O   0  0  0  0  0  0  0  0  0  0  0  0
    1.4675   -1.5172   -0.7001 N   0  0  0  0  0  0  0  0  0  0  0  0
    2.0733   -0.5657    0.1019 C   0  0  0  0  0  0  0  0  0  0  0  0
    1.7541   -0.5043    1.3862 N   0  0  0  0  0  0  0  0  0  0  0  0
    2.3146    0.3932    2.1802 C   0  0  0  0  0  0  0  0  0  0  0  0
    3.2450    1.2747    1.6532 C   0  0  0  0  0  0  0  0  0  0  0  0
    3.5558    1.1829    0.3053 C   0  0  0  0  0  0  0  0  0  0  0  0
    2.9627    0.2587   -0.4320 N   0  0  0  0  0  0  0  0  0  0  0  0
    4.5614    2.1209   -0.3111 C   0  0  0  0  0  0  0  0  0  0  0  0
    5.6590    1.3094   -1.0021 C   0  0  0  0  0  0  0  0  0  0  0  0
    6.6800    2.2617   -1.6280 C   0  0  0  0  0  0  0  0  0  0  0  0
   -1.3409   -0.4264    1.1750 C   0  0  0  0  0  0  0  0  0  0  0  0
   -2.3384    0.5214    1.2944 C   0  0  0  0  0  0  0  0  0  0  0  0
   -7.3500    2.2348   -0.6908 H   0  0  0  0  0  0  0  0  0  0  0  0
   -6.7697    2.5496    0.9623 H   0  0  0  0  0  0  0  0  0  0  0  0
   -6.1723    3.5360   -0.3936 H   0  0  0  0  0  0  0  0  0  0  0  0
   -4.0487    2.5344    0.8803 H   0  0  0  0  0  0  0  0  0  0  0  0
   -3.6411    0.3154   -1.8209 H   0  0  0  0  0  0  0  0  0  0  0  0
   -1.8538   -1.3641   -2.0262 H   0  0  0  0  0  0  0  0  0  0  0  0
    1.8371   -1.7222   -1.5731 H   0  0  0  0  0  0  0  0  0  0  0  0
    2.0501    0.4386    3.2263 H   0  0  0  0  0  0  0  0  0  0  0  0
    3.7175    2.0175    2.2790 H   0  0  0  0  0  0  0  0  0  0  0  0
    4.0639    2.7566   -1.0435 H   0  0  0  0  0  0  0  0  0  0  0  0
    5.0042    2.7417    0.4677 H   0  0  0  0  0  0  0  0  0  0  0  0
    6.1566    0.6736   -0.2697 H   0  0  0  0  0  0  0  0  0  0  0  0
    5.2162    0.6885   -1.7809 H   0  0  0  0  0  0  0  0  0  0  0  0
    6.1825    2.8974   -2.3604 H   0  0  0  0  0  0  0  0  0  0  0  0
    7.1228    2.8825   -0.8492 H   0  0  0  0  0  0  0  0  0  0  0  0
    7.4620    1.6836   -2.1203 H   0  0  0  0  0  0  0  0  0  0  0  0
   -0.6940   -0.6373    2.0137 H   0  0  0  0  0  0  0  0  0  0  0  0
   -2.4738    1.0491    2.2270 H   0  0  0  0  0  0  0  0  0  0  0  0
  1  2  1  0  0  0  0
  1  3  2  0  0  0  0
  1  4  1  0  0  0  0
  4  5  1  0  0  0  0
  5  6  2  0  0  0  0
  6  7  1  0  0  0  0
  7  8  2  0  0  0  0
  8  9  1  0  0  0  0
  9 10  2  0  0  0  0
  9 11  2  0  0  0  0
  9 12  1  0  0  0  0
 12 13  1  0  0  0  0
 13 14  2  0  0  0  0
 14 15  1  0  0  0  0
 15 16  2  0  0  0  0
 16 17  1  0  0  0  0
 17 18  2  0  0  0  0
 13 18  1  0  0  0  0
 17 19  1  0  0  0  0
 19 20  1  0  0  0  0
 20 21  1  0  0  0  0
  8 22  1  0  0  0  0
 22 23  2  0  0  0  0
  5 23  1  0  0  0  0
  2 24  1  0  0  0  0
  2 25  1  0  0  0  0
  2 26  1  0  0  0  0
  4 27  1  0  0  0  0
  6 28  1  0  0  0  0
  7 29  1  0  0  0  0
 12 30  1  0  0  0  0
 15 31  1  0  0  0  0
 16 32  1  0  0  0  0
 19 33  1  0  0  0  0
 19 34  1  0  0  0  0
 20 35  1  0  0  0  0
 20 36  1  0  0  0  0
 21 37  1  0  0  0  0
 21 38  1  0  0  0  0
 21 39  1  0  0  0  0
 22 40  1  0  0  0  0
 23 41  1  0  0  0  0
M  END
$$$$
