C16H20N4O3S
APtclcactv12211717133D 0   0.00000     0.00000
 
 44 45  0  0  0  0  0  0  0  0999 V2000
   -5.5405    1.6049   -0.3798 C   0  0  0  0  0  0  0  0  0  0  0  0
   -6.6679    2.5866   -0.1893 C   0  0  0  0  0  0  0  0  0  0  0  0
   -5.6673    0.6780   -1.1517 O   0  0  0  0  0  0  0  0  0  0  0  0
   -4.3892    1.7601    0.3036 N   0  0  0  0  0  0  0  0  0  0  0  0
   -3.3795    0.7968    0.2010 C   0  0  0  0  0  0  0  0  0  0  0  0
   -3.1662    0.1378   -1.0027 C   0  0  0  0  0  0  0  0  0  0  0  0
   -2.1687   -0.8125   -1.1006 C   0  0  0  0  0  0  0  0  0  0  0  0
   -1.3832   -1.1083   -0.0017 C   0  0  0  0  0  0  0  0  0  0  0  0
   -0.1121   -2.3217   -0.1307 S   0  0  0  0  0  0  0  0  0  0  0  0
    0.1239   -2.7973    1.1873 O   0  0  0  0  0  0  0  0  0  0  0  0
   -0.4764   -3.1713   -1.2099 O   0  0  0  0  0  0  0  0  0  0  0  0
    1.2690   -1.5370   -0.5990 N   0  0  0  0  0  0  0  0  0  0  0  0
    1.8554   -0.6069    0.2417 C   0  0  0  0  0  0  0  0  0  0  0  0
    1.4922   -0.5666    1.5151 N   0  0  0  0  0  0  0  0  0  0  0  0
    2.0331    0.3100    2.3451 C   0  0  0  0  0  0  0  0  0  0  0  0
    2.9895    1.1920    1.8678 C   0  0  0  0  0  0  0  0  0  0  0  0
    3.3463    1.1224    0.5301 C   0  0  0  0  0  0  0  0  0  0  0  0
    2.7707    0.2184   -0.2450 N   0  0  0  0  0  0  0  0  0  0  0  0
    4.3816    2.0617   -0.0330 C   0  0  0  0  0  0  0  0  0  0  0  0
    5.4950    1.2524   -0.7009 C   0  0  0  0  0  0  0  0  0  0  0  0
    4.9274    0.5045   -1.9089 C   0  0  0  0  0  0  0  0  0  0  0  0
    6.6061    2.1977   -1.1623 C   0  0  0  0  0  0  0  0  0  0  0  0
   -1.5927   -0.4535    1.1981 C   0  0  0  0  0  0  0  0  0  0  0  0
   -2.5848    0.5019    1.3010 C   0  0  0  0  0  0  0  0  0  0  0  0
   -7.5077    2.3030   -0.8237 H   0  0  0  0  0  0  0  0  0  0  0  0
   -6.9826    2.5805    0.8543 H   0  0  0  0  0  0  0  0  0  0  0  0
   -6.3289    3.5863   -0.4608 H   0  0  0  0  0  0  0  0  0  0  0  0
   -4.2606    2.5395    0.8665 H   0  0  0  0  0  0  0  0  0  0  0  0
   -3.7798    0.3679   -1.8611 H   0  0  0  0  0  0  0  0  0  0  0  0
   -2.0023   -1.3253   -2.0364 H   0  0  0  0  0  0  0  0  0  0  0  0
    1.6670   -1.7292   -1.4625 H   0  0  0  0  0  0  0  0  0  0  0  0
    1.7326    0.3383    3.3821 H   0  0  0  0  0  0  0  0  0  0  0  0
    3.4469    1.9179    2.5238 H   0  0  0  0  0  0  0  0  0  0  0  0
    3.9159    2.7162   -0.7698 H   0  0  0  0  0  0  0  0  0  0  0  0
    4.8028    2.6633    0.7726 H   0  0  0  0  0  0  0  0  0  0  0  0
    5.9010    0.5353    0.0125 H   0  0  0  0  0  0  0  0  0  0  0  0
    5.7207   -0.0721   -2.3848 H   0  0  0  0  0  0  0  0  0  0  0  0
    4.1358   -0.1689   -1.5803 H   0  0  0  0  0  0  0  0  0  0  0  0
    4.5214    1.2216   -2.6224 H   0  0  0  0  0  0  0  0  0  0  0  0
    7.0105    2.7305   -0.3016 H   0  0  0  0  0  0  0  0  0  0  0  0
    7.3993    1.6211   -1.6381 H   0  0  0  0  0  0  0  0  0  0  0  0
    6.2001    2.9148   -1.8757 H   0  0  0  0  0  0  0  0  0  0  0  0
   -0.9775   -0.6868    2.0545 H   0  0  0  0  0  0  0  0  0  0  0  0
   -2.7477    1.0132    2.2382 H   0  0  0  0  0  0  0  0  0  0  0  0
  1  2  1  0  0  0  0
  1  3  2  0  0  0  0
  1  4  1  0  0  0  0
  4  5  1  0  0  0  0
  5  6  2  0  0  0  0
  6  7  1  0  0  0  0
  7  8  2  0  0  0  0
  8  9  1  0  0  0  0
  9 10  2  0  0  0  0
  9 11  2  0  0  0  0
  9 12  1  0  0  0  0
 12 13  1  0  0  0  0
 13 14  2  0  0  0  0
 14 15  1  0  0  0  0
 15 16  2  0  0  0  0
 16 17  1  0  0  0  0
 17 18  2  0  0  0  0
 13 18  1  0  0  0  0
 17 19  1  0  0  0  0
 19 20  1  0  0  0  0
 20 21  1  0  0  0  0
 20 22  1  0  0  0  0
  8 23  1  0  0  0  0
 23 24  2  0  0  0  0
  5 24  1  0  0  0  0
  2 25  1  0  0  0  0
  2 26  1  0  0  0  0
  2 27  1  0  0  0  0
  4 28  1  0  0  0  0
  6 29  1  0  0  0  0
  7 30  1  0  0  0  0
 12 31  1  0  0  0  0
 15 32  1  0  0  0  0
 16 33  1  0  0  0  0
 19 34  1  0  0  0  0
 19 35  1  0  0  0  0
 20 36  1  0  0  0  0
 21 37  1  0  0  0  0
 21 38  1  0  0  0  0
 21 39  1  0  0  0  0
 22 40  1  0  0  0  0
 22 41  1  0  0  0  0
 22 42  1  0  0  0  0
 23 43  1  0  0  0  0
 24 44  1  0  0  0  0
M  END
$$$$
