C15H21NO3S
APtclcactv12211717083D 0   0.00000     0.00000
 
 41 42  0  0  0  0  0  0  0  0999 V2000
    5.4244    0.8782    0.4141 C   0  0  0  0  0  0  0  0  0  0  0  0
    6.2166    0.7112   -0.8841 C   0  0  0  0  0  0  0  0  0  0  0  0
    5.3374    2.3634    0.7711 C   0  0  0  0  0  0  0  0  0  0  0  0
    4.0353    0.3236    0.2298 C   0  0  0  0  0  0  0  0  0  0  0  0
    3.5932   -0.7132    1.0299 C   0  0  0  0  0  0  0  0  0  0  0  0
    2.3190   -1.2219    0.8608 C   0  0  0  0  0  0  0  0  0  0  0  0
    1.4868   -0.6935   -0.1082 C   0  0  0  0  0  0  0  0  0  0  0  0
    1.9286    0.3440   -0.9078 C   0  0  0  0  0  0  0  0  0  0  0  0
    3.2012    0.8556   -0.7358 C   0  0  0  0  0  0  0  0  0  0  0  0
    0.0981   -1.2487   -0.2933 C   0  0  0  0  0  0  0  0  0  0  0  0
   -0.4262   -1.7222    0.9624 O   0  0  0  0  0  0  0  0  0  0  0  0
   -1.8526   -1.5956    1.0387 C   0  0  0  0  0  0  0  0  0  0  0  0
   -2.2197   -0.1454    0.6113 C   0  0  0  0  0  0  0  0  0  0  0  0
   -1.0611    0.0799   -0.7997 S   0  0  0  0  0  0  0  0  0  0  0  0
   -3.6548   -0.0550    0.1602 C   0  0  0  0  0  0  0  0  0  0  0  0
   -4.3421    1.0925    0.3254 N   0  0  0  0  0  0  0  0  0  0  0  0
   -5.6905    1.1773   -0.0985 O   0  0  0  0  0  0  0  0  0  0  0  0
   -6.2951    2.4504    0.1378 C   0  0  0  0  0  0  0  0  0  0  0  0
   -4.1912   -1.0149   -0.3514 O   0  0  0  0  0  0  0  0  0  0  0  0
    0.1079   -2.3761   -1.3276 C   0  0  0  0  0  0  0  0  0  0  0  0
    5.9267    0.3401    1.2181 H   0  0  0  0  0  0  0  0  0  0  0  0
    5.7144    1.2493   -1.6880 H   0  0  0  0  0  0  0  0  0  0  0  0
    7.2214    1.1123   -0.7507 H   0  0  0  0  0  0  0  0  0  0  0  0
    6.2786   -0.3469   -1.1384 H   0  0  0  0  0  0  0  0  0  0  0  0
    4.8351    2.9015   -0.0329 H   0  0  0  0  0  0  0  0  0  0  0  0
    4.7730    2.4824    1.6959 H   0  0  0  0  0  0  0  0  0  0  0  0
    6.3421    2.7645    0.9044 H   0  0  0  0  0  0  0  0  0  0  0  0
    4.2434   -1.1261    1.7870 H   0  0  0  0  0  0  0  0  0  0  0  0
    1.9739   -2.0325    1.4855 H   0  0  0  0  0  0  0  0  0  0  0  0
    1.2785    0.7567   -1.6651 H   0  0  0  0  0  0  0  0  0  0  0  0
    3.5464    1.6662   -1.3604 H   0  0  0  0  0  0  0  0  0  0  0  0
   -2.3238   -2.3103    0.3641 H   0  0  0  0  0  0  0  0  0  0  0  0
   -2.1856   -1.7753    2.0609 H   0  0  0  0  0  0  0  0  0  0  0  0
   -2.0131    0.5667    1.4103 H   0  0  0  0  0  0  0  0  0  0  0  0
   -3.9131    1.8602    0.7346 H   0  0  0  0  0  0  0  0  0  0  0  0
   -6.2794    2.6674    1.2059 H   0  0  0  0  0  0  0  0  0  0  0  0
   -5.7405    3.2210   -0.3977 H   0  0  0  0  0  0  0  0  0  0  0  0
   -7.3264    2.4339   -0.2145 H   0  0  0  0  0  0  0  0  0  0  0  0
    0.7673   -3.1749   -0.9881 H   0  0  0  0  0  0  0  0  0  0  0  0
   -0.9026   -2.7661   -1.4495 H   0  0  0  0  0  0  0  0  0  0  0  0
    0.4661   -1.9903   -2.2821 H   0  0  0  0  0  0  0  0  0  0  0  0
  1  2  1  0  0  0  0
  1  3  1  0  0  0  0
  1  4  1  0  0  0  0
  4  5  2  0  0  0  0
  5  6  1  0  0  0  0
  6  7  2  0  0  0  0
  7  8  1  0  0  0  0
  8  9  2  0  0  0  0
  4  9  1  0  0  0  0
  7 10  1  0  0  0  0
 10 11  1  0  0  0  0
 11 12  1  0  0  0  0
 12 13  1  0  0  0  0
 13 14  1  0  0  0  0
 10 14  1  0  0  0  0
 13 15  1  0  0  0  0
 15 16  1  0  0  0  0
 16 17  1  0  0  0  0
 17 18  1  0  0  0  0
 15 19  2  0  0  0  0
 10 20  1  0  0  0  0
  1 21  1  0  0  0  0
  2 22  1  0  0  0  0
  2 23  1  0  0  0  0
  2 24  1  0  0  0  0
  3 25  1  0  0  0  0
  3 26  1  0  0  0  0
  3 27  1  0  0  0  0
  5 28  1  0  0  0  0
  6 29  1  0  0  0  0
  8 30  1  0  0  0  0
  9 31  1  0  0  0  0
 12 32  1  0  0  0  0
 12 33  1  0  0  0  0
 13 34  1  0  0  0  0
 16 35  1  0  0  0  0
 18 36  1  0  0  0  0
 18 37  1  0  0  0  0
 18 38  1  0  0  0  0
 20 39  1  0  0  0  0
 20 40  1  0  0  0  0
 20 41  1  0  0  0  0
M  END
$$$$
