C16H15Cl3OS2
APtclcactv12211717113D 0   0.00000     0.00000
 
 37 38  0  0  0  0  0  0  0  0999 V2000
   -6.0646    2.4003    0.6935 C   0  0  0  0  0  0  0  0  0  0  0  0
   -4.8558    2.6794   -0.6300 S   0  0  0  0  0  0  0  0  0  0  0  0
   -3.5344    1.5983   -0.1942 C   0  0  0  0  0  0  0  0  0  0  0  0
   -2.3978    1.5311   -0.9911 C   0  0  0  0  0  0  0  0  0  0  0  0
   -1.3643    0.6827   -0.6465 C   0  0  0  0  0  0  0  0  0  0  0  0
   -1.4594   -0.0999    0.4898 C   0  0  0  0  0  0  0  0  0  0  0  0
   -2.5892   -0.0360    1.2849 C   0  0  0  0  0  0  0  0  0  0  0  0
   -3.6239    0.8150    0.9502 C   0  0  0  0  0  0  0  0  0  0  0  0
   -0.3295   -1.0249    0.8622 C   0  0  0  0  0  0  0  0  0  0  0  0
   -0.3478   -2.2481   -0.0567 C   0  0  0  0  0  0  0  0  0  0  0  0
   -0.3500   -1.7076   -1.7768 Cl  0  0  0  0  0  0  0  0  0  0  0  0
    1.1146   -3.2557    0.2547 Cl  0  0  0  0  0  0  0  0  0  0  0  0
   -1.8295   -3.2224    0.2690 Cl  0  0  0  0  0  0  0  0  0  0  0  0
    0.9834   -0.3011    0.7091 C   0  0  0  0  0  0  0  0  0  0  0  0
    1.8541   -0.6558   -0.3044 C   0  0  0  0  0  0  0  0  0  0  0  0
    3.0584    0.0081   -0.4449 C   0  0  0  0  0  0  0  0  0  0  0  0
    3.3919    1.0269    0.4279 C   0  0  0  0  0  0  0  0  0  0  0  0
    2.5209    1.3821    1.4408 C   0  0  0  0  0  0  0  0  0  0  0  0
    1.3146    0.7212    1.5786 C   0  0  0  0  0  0  0  0  0  0  0  0
    4.9276    1.8723    0.2496 S   0  0  0  0  0  0  0  0  0  0  0  0
    5.7346    0.9272   -0.4395 O   0  0  0  0  0  0  0  0  0  0  0  0
    4.5127    3.2409   -0.8664 C   0  0  0  0  0  0  0  0  0  0  0  0
   -6.3644    1.3524    0.6967 H   0  0  0  0  0  0  0  0  0  0  0  0
   -5.6162    2.6529    1.6543 H   0  0  0  0  0  0  0  0  0  0  0  0
   -6.9396    3.0280    0.5246 H   0  0  0  0  0  0  0  0  0  0  0  0
   -2.3231    2.1415   -1.8789 H   0  0  0  0  0  0  0  0  0  0  0  0
   -0.4807    0.6300   -1.2653 H   0  0  0  0  0  0  0  0  0  0  0  0
   -2.6602   -0.6489    2.1714 H   0  0  0  0  0  0  0  0  0  0  0  0
   -4.5059    0.8643    1.5716 H   0  0  0  0  0  0  0  0  0  0  0  0
   -0.4488   -1.3460    1.8970 H   0  0  0  0  0  0  0  0  0  0  0  0
    1.5935   -1.4518   -0.9863 H   0  0  0  0  0  0  0  0  0  0  0  0
    3.7389   -0.2695   -1.2362 H   0  0  0  0  0  0  0  0  0  0  0  0
    2.7816    2.1779    2.1229 H   0  0  0  0  0  0  0  0  0  0  0  0
    0.6341    0.9987    2.3699 H   0  0  0  0  0  0  0  0  0  0  0  0
    3.7431    3.8624   -0.4087 H   0  0  0  0  0  0  0  0  0  0  0  0
    5.4031    3.8420   -1.0507 H   0  0  0  0  0  0  0  0  0  0  0  0
    4.1428    2.8406   -1.8103 H   0  0  0  0  0  0  0  0  0  0  0  0
  1  2  1  0  0  0  0
  2  3  1  0  0  0  0
  3  4  2  0  0  0  0
  4  5  1  0  0  0  0
  5  6  2  0  0  0  0
  6  7  1  0  0  0  0
  7  8  2  0  0  0  0
  3  8  1  0  0  0  0
  6  9  1  0  0  0  0
  9 10  1  0  0  0  0
 10 11  1  0  0  0  0
 10 12  1  0  0  0  0
 10 13  1  0  0  0  0
  9 14  1  0  0  0  0
 14 15  2  0  0  0  0
 15 16  1  0  0  0  0
 16 17  2  0  0  0  0
 17 18  1  0  0  0  0
 18 19  2  0  0  0  0
 14 19  1  0  0  0  0
 17 20  1  0  0  0  0
 20 21  2  0  0  0  0
 20 22  1  0  0  0  0
  1 23  1  0  0  0  0
  1 24  1  0  0  0  0
  1 25  1  0  0  0  0
  4 26  1  0  0  0  0
  5 27  1  0  0  0  0
  7 28  1  0  0  0  0
  8 29  1  0  0  0  0
  9 30  1  0  0  0  0
 15 31  1  0  0  0  0
 16 32  1  0  0  0  0
 18 33  1  0  0  0  0
 19 34  1  0  0  0  0
 22 35  1  0  0  0  0
 22 36  1  0  0  0  0
 22 37  1  0  0  0  0
M  END
$$$$
