C10H13N5O
APtclcactv12211717253D 0   0.00000     0.00000
 
 29 30  0  0  0  0  0  0  0  0999 V2000
    4.1448    1.4414    0.2737 N   0  0  0  0  0  0  0  0  0  0  0  0
    2.9515    0.7564    0.1471 C   0  0  0  0  0  0  0  0  0  0  0  0
    1.8217    1.4268    0.2684 N   0  0  0  0  0  0  0  0  0  0  0  0
    0.6438    0.7999    0.1520 C   0  0  0  0  0  0  0  0  0  0  0  0
   -0.5148    1.4534    0.2697 N   0  0  0  0  0  0  0  0  0  0  0  0
   -1.6476    0.7948    0.1471 C   0  0  0  0  0  0  0  0  0  0  0  0
   -1.6510   -0.5769   -0.1041 C   0  0  0  0  0  0  0  0  0  0  0  0
   -0.5213   -1.2401   -0.2231 N   0  0  0  0  0  0  0  0  0  0  0  0
    0.6360   -0.5940   -0.1033 C   0  0  0  0  0  0  0  0  0  0  0  0
    1.8822   -1.2615   -0.2226 C   0  0  0  0  0  0  0  0  0  0  0  0
    2.9897   -0.5513   -0.0976 N   0  0  0  0  0  0  0  0  0  0  0  0
    1.9355   -2.5911   -0.4647 O   0  0  0  0  0  0  0  0  0  0  0  0
   -2.9624   -1.3070   -0.2400 C   0  0  0  0  0  0  0  0  0  0  0  0
   -3.3959   -1.8358    1.1287 C   0  0  0  0  0  0  0  0  0  0  0  0
   -2.9556    1.5312    0.2802 C   0  0  0  0  0  0  0  0  0  0  0  0
   -3.3881    2.0546   -1.0909 C   0  0  0  0  0  0  0  0  0  0  0  0
    4.1401    2.3956    0.4482 H   0  0  0  0  0  0  0  0  0  0  0  0
    4.9872    0.9674    0.1921 H   0  0  0  0  0  0  0  0  0  0  0  0
    1.9526   -2.8194   -1.4042 H   0  0  0  0  0  0  0  0  0  0  0  0
   -3.7207   -0.6238   -0.6224 H   0  0  0  0  0  0  0  0  0  0  0  0
   -2.8436   -2.1416   -0.9309 H   0  0  0  0  0  0  0  0  0  0  0  0
   -2.6066   -2.4633    1.5425 H   0  0  0  0  0  0  0  0  0  0  0  0
   -3.5827   -0.9973    1.7997 H   0  0  0  0  0  0  0  0  0  0  0  0
   -4.3074   -2.4234    1.0191 H   0  0  0  0  0  0  0  0  0  0  0  0
   -3.7166    0.8533    0.6669 H   0  0  0  0  0  0  0  0  0  0  0  0
   -2.8328    2.3690    0.9667 H   0  0  0  0  0  0  0  0  0  0  0  0
   -2.6697    2.7964   -1.4397 H   0  0  0  0  0  0  0  0  0  0  0  0
   -3.4290    1.2272   -1.7993 H   0  0  0  0  0  0  0  0  0  0  0  0
   -4.3737    2.5131   -1.0105 H   0  0  0  0  0  0  0  0  0  0  0  0
  1  2  1  0  0  0  0
  2  3  2  0  0  0  0
  3  4  1  0  0  0  0
  4  5  2  0  0  0  0
  5  6  1  0  0  0  0
  6  7  2  0  0  0  0
  7  8  1  0  0  0  0
  8  9  2  0  0  0  0
  4  9  1  0  0  0  0
  9 10  1  0  0  0  0
 10 11  2  0  0  0  0
  2 11  1  0  0  0  0
 10 12  1  0  0  0  0
  7 13  1  0  0  0  0
 13 14  1  0  0  0  0
  6 15  1  0  0  0  0
 15 16  1  0  0  0  0
  1 17  1  0  0  0  0
  1 18  1  0  0  0  0
 12 19  1  0  0  0  0
 13 20  1  0  0  0  0
 13 21  1  0  0  0  0
 14 22  1  0  0  0  0
 14 23  1  0  0  0  0
 14 24  1  0  0  0  0
 15 25  1  0  0  0  0
 15 26  1  0  0  0  0
 16 27  1  0  0  0  0
 16 28  1  0  0  0  0
 16 29  1  0  0  0  0
M  END
$$$$
