C13H11N
APtclcactv12071713253D 0   0.00000     0.00000
 
 25 27  0  0  0  0  0  0  0  0999 V2000
    4.4385    0.2209    0.0016 N   0  0  0  0  0  0  0  0  0  0  0  0
    3.0615   -0.0065    0.0010 C   0  0  0  0  0  0  0  0  0  0  0  0
    2.1787    1.0677    0.0003 C   0  0  0  0  0  0  0  0  0  0  0  0
    0.8199    0.8421   -0.0003 C   0  0  0  0  0  0  0  0  0  0  0  0
   -0.3617    1.7810   -0.0006 C   0  0  0  0  0  0  0  0  0  0  0  0
   -1.5903    0.9050   -0.0006 C   0  0  0  0  0  0  0  0  0  0  0  0
   -2.9370    1.1994   -0.0004 C   0  0  0  0  0  0  0  0  0  0  0  0
   -3.8698    0.1770    0.0001 C   0  0  0  0  0  0  0  0  0  0  0  0
   -3.4533   -1.1419    0.0009 C   0  0  0  0  0  0  0  0  0  0  0  0
   -2.1076   -1.4459    0.0007 C   0  0  0  0  0  0  0  0  0  0  0  0
   -1.1610   -0.4198   -0.0003 C   0  0  0  0  0  0  0  0  0  0  0  0
    0.3222   -0.4588   -0.0001 C   0  0  0  0  0  0  0  0  0  0  0  0
    1.2125   -1.5354    0.0013 C   0  0  0  0  0  0  0  0  0  0  0  0
    2.5710   -1.3075   -0.0046 C   0  0  0  0  0  0  0  0  0  0  0  0
    4.7801    1.1288    0.0015 H   0  0  0  0  0  0  0  0  0  0  0  0
    5.0539   -0.5288    0.0061 H   0  0  0  0  0  0  0  0  0  0  0  0
    2.5583    2.0788    0.0005 H   0  0  0  0  0  0  0  0  0  0  0  0
   -0.3455    2.4049    0.8931 H   0  0  0  0  0  0  0  0  0  0  0  0
   -0.3453    2.4045   -0.8945 H   0  0  0  0  0  0  0  0  0  0  0  0
   -3.2644    2.2286   -0.0002 H   0  0  0  0  0  0  0  0  0  0  0  0
   -4.9245    0.4093    0.0003 H   0  0  0  0  0  0  0  0  0  0  0  0
   -4.1843   -1.9368    0.0020 H   0  0  0  0  0  0  0  0  0  0  0  0
   -1.7866   -2.4771    0.0016 H   0  0  0  0  0  0  0  0  0  0  0  0
    0.8353   -2.5474    0.0024 H   0  0  0  0  0  0  0  0  0  0  0  0
    3.2570   -2.1416   -0.0039 H   0  0  0  0  0  0  0  0  0  0  0  0
  1  2  1  0  0  0  0
  2  3  2  0  0  0  0
  3  4  1  0  0  0  0
  4  5  1  0  0  0  0
  5  6  1  0  0  0  0
  6  7  2  0  0  0  0
  7  8  1  0  0  0  0
  8  9  2  0  0  0  0
  9 10  1  0  0  0  0
 10 11  2  0  0  0  0
  6 11  1  0  0  0  0
 11 12  1  0  0  0  0
  4 12  2  0  0  0  0
 12 13  1  0  0  0  0
 13 14  2  0  0  0  0
  2 14  1  0  0  0  0
  1 15  1  0  0  0  0
  1 16  1  0  0  0  0
  3 17  1  0  0  0  0
  5 18  1  0  0  0  0
  5 19  1  0  0  0  0
  7 20  1  0  0  0  0
  8 21  1  0  0  0  0
  9 22  1  0  0  0  0
 10 23  1  0  0  0  0
 13 24  1  0  0  0  0
 14 25  1  0  0  0  0
M  END
$$$$
