C6H5N5
APtclcactv12211716523D 0   0.00000     0.00000
 
 16 17  0  0  0  0  0  0  0  0999 V2000
    3.2815    0.6715    0.0005 N   0  0  0  0  0  0  0  0  0  0  0  0
    1.9862    0.1901    0.0009 C   0  0  0  0  0  0  0  0  0  0  0  0
    0.9897    1.0540    0.0005 N   0  0  0  0  0  0  0  0  0  0  0  0
   -0.2771    0.6239    0.0004 C   0  0  0  0  0  0  0  0  0  0  0  0
   -1.3084    1.4729   -0.0005 N   0  0  0  0  0  0  0  0  0  0  0  0
   -2.5368    1.0029   -0.0010 C   0  0  0  0  0  0  0  0  0  0  0  0
   -2.7752   -0.3727   -0.0000 C   0  0  0  0  0  0  0  0  0  0  0  0
   -1.7762   -1.2270    0.0009 N   0  0  0  0  0  0  0  0  0  0  0  0
   -0.5225   -0.7736    0.0008 C   0  0  0  0  0  0  0  0  0  0  0  0
    0.5851   -1.6469    0.0012 C   0  0  0  0  0  0  0  0  0  0  0  0
    1.7939   -1.1283   -0.0038 N   0  0  0  0  0  0  0  0  0  0  0  0
    3.4435    1.6278   -0.0000 H   0  0  0  0  0  0  0  0  0  0  0  0
    4.0288    0.0530    0.0048 H   0  0  0  0  0  0  0  0  0  0  0  0
   -3.3707    1.6892   -0.0017 H   0  0  0  0  0  0  0  0  0  0  0  0
   -3.7913   -0.7388    0.0004 H   0  0  0  0  0  0  0  0  0  0  0  0
    0.4439   -2.7177    0.0022 H   0  0  0  0  0  0  0  0  0  0  0  0
  1  2  1  0  0  0  0
  2  3  2  0  0  0  0
  3  4  1  0  0  0  0
  4  5  2  0  0  0  0
  5  6  1  0  0  0  0
  6  7  2  0  0  0  0
  7  8  1  0  0  0  0
  8  9  2  0  0  0  0
  4  9  1  0  0  0  0
  9 10  1  0  0  0  0
 10 11  2  0  0  0  0
  2 11  1  0  0  0  0
  1 12  1  0  0  0  0
  1 13  1  0  0  0  0
  6 14  1  0  0  0  0
  7 15  1  0  0  0  0
 10 16  1  0  0  0  0
M  END
$$$$
