C7H9NO3S
APtclcactv12151716193D 0   0.00000     0.00000
 
 21 21  0  0  0  0  0  0  0  0999 V2000
    0.4668    2.3985   -0.0261 N   0  0  0  0  0  0  0  0  0  0  0  0
   -0.4821    1.3737   -0.0132 C   0  0  0  0  0  0  0  0  0  0  0  0
   -0.0732    0.0464   -0.0187 C   0  0  0  0  0  0  0  0  0  0  0  0
   -1.0143   -0.9646   -0.0055 C   0  0  0  0  0  0  0  0  0  0  0  0
   -2.3620   -0.6565    0.0127 C   0  0  0  0  0  0  0  0  0  0  0  0
   -2.7727    0.6642    0.0182 C   0  0  0  0  0  0  0  0  0  0  0  0
   -1.8371    1.6798    0.0109 C   0  0  0  0  0  0  0  0  0  0  0  0
   -3.3859   -1.7622    0.0261 C   0  0  0  0  0  0  0  0  0  0  0  0
    1.6440   -0.3474   -0.0431 S   0  0  0  0  0  0  0  0  0  0  0  0
    1.9815   -0.5869   -1.4025 O   0  0  0  0  0  0  0  0  0  0  0  0
    2.2916    0.6318    0.7576 O   0  0  0  0  0  0  0  0  0  0  0  0
    1.8122   -1.6750    0.6818 O   0  0  0  0  0  0  0  0  0  0  0  0
    1.4126    2.1836   -0.0389 H   0  0  0  0  0  0  0  0  0  0  0  0
    0.1799    3.3251   -0.0263 H   0  0  0  0  0  0  0  0  0  0  0  0
   -0.6970   -1.9970   -0.0098 H   0  0  0  0  0  0  0  0  0  0  0  0
   -3.8262    0.9014    0.0321 H   0  0  0  0  0  0  0  0  0  0  0  0
   -2.1585    2.7108    0.0155 H   0  0  0  0  0  0  0  0  0  0  0  0
   -3.6189   -2.0292    1.0569 H   0  0  0  0  0  0  0  0  0  0  0  0
   -4.2925   -1.4239   -0.4755 H   0  0  0  0  0  0  0  0  0  0  0  0
   -2.9867   -2.6333   -0.4934 H   0  0  0  0  0  0  0  0  0  0  0  0
    2.7268   -1.9860    0.7259 H   0  0  0  0  0  0  0  0  0  0  0  0
  1  2  1  0  0  0  0
  2  3  2  0  0  0  0
  3  4  1  0  0  0  0
  4  5  2  0  0  0  0
  5  6  1  0  0  0  0
  6  7  2  0  0  0  0
  2  7  1  0  0  0  0
  5  8  1  0  0  0  0
  3  9  1  0  0  0  0
  9 10  2  0  0  0  0
  9 11  2  0  0  0  0
  9 12  1  0  0  0  0
  1 13  1  0  0  0  0
  1 14  1  0  0  0  0
  4 15  1  0  0  0  0
  6 16  1  0  0  0  0
  7 17  1  0  0  0  0
  8 18  1  0  0  0  0
  8 19  1  0  0  0  0
  8 20  1  0  0  0  0
 12 21  1  0  0  0  0
M  END
$$$$
