C6H5N5O
APtclcactv12211716523D 0   0.00000     0.00000
 
 17 18  0  0  0  0  0  0  0  0999 V2000
    3.1690    1.1888   -0.0024 N   0  0  0  0  0  0  0  0  0  0  0  0
    1.9108    0.6175    0.0020 C   0  0  0  0  0  0  0  0  0  0  0  0
    0.8564    1.4105   -0.0060 N   0  0  0  0  0  0  0  0  0  0  0  0
   -0.3804    0.8964   -0.0026 C   0  0  0  0  0  0  0  0  0  0  0  0
   -1.4652    1.6750   -0.0109 N   0  0  0  0  0  0  0  0  0  0  0  0
   -2.6604    1.1242   -0.0075 C   0  0  0  0  0  0  0  0  0  0  0  0
   -2.8061   -0.2627    0.0047 C   0  0  0  0  0  0  0  0  0  0  0  0
   -1.7509   -1.0481    0.0135 N   0  0  0  0  0  0  0  0  0  0  0  0
   -0.5327   -0.5125    0.0098 C   0  0  0  0  0  0  0  0  0  0  0  0
    0.6379   -1.3141    0.0192 C   0  0  0  0  0  0  0  0  0  0  0  0
    1.8131   -0.7098    0.0085 N   0  0  0  0  0  0  0  0  0  0  0  0
    0.5531   -2.6639    0.0324 O   0  0  0  0  0  0  0  0  0  0  0  0
    3.2632    2.1542   -0.0111 H   0  0  0  0  0  0  0  0  0  0  0  0
    3.9579    0.6245    0.0073 H   0  0  0  0  0  0  0  0  0  0  0  0
   -3.5383    1.7533   -0.0139 H   0  0  0  0  0  0  0  0  0  0  0  0
   -3.7953   -0.6963    0.0074 H   0  0  0  0  0  0  0  0  0  0  0  0
    0.5295   -3.0651   -0.8471 H   0  0  0  0  0  0  0  0  0  0  0  0
  1  2  1  0  0  0  0
  2  3  2  0  0  0  0
  3  4  1  0  0  0  0
  4  5  2  0  0  0  0
  5  6  1  0  0  0  0
  6  7  2  0  0  0  0
  7  8  1  0  0  0  0
  8  9  2  0  0  0  0
  4  9  1  0  0  0  0
  9 10  1  0  0  0  0
 10 11  2  0  0  0  0
  2 11  1  0  0  0  0
 10 12  1  0  0  0  0
  1 13  1  0  0  0  0
  1 14  1  0  0  0  0
  6 15  1  0  0  0  0
  7 16  1  0  0  0  0
 12 17  1  0  0  0  0
M  END
$$$$
