C2H4N4O2S2
APtclcactv12101715343D 0   0.00000     0.00000
 
 14 14  0  0  0  0  0  0  0  0999 V2000
    3.8180    0.0352    0.0013 N   0  0  0  0  0  0  0  0  0  0  0  0
    2.4445   -0.1580    0.0011 C   0  0  0  0  0  0  0  0  0  0  0  0
    1.2146    1.1080   -0.0007 S   0  0  0  0  0  0  0  0  0  0  0  0
   -0.0268   -0.1464    0.0003 C   0  0  0  0  0  0  0  0  0  0  0  0
    0.5688   -1.2942    0.0018 N   0  0  0  0  0  0  0  0  0  0  0  0
    1.8298   -1.3061   -0.0035 N   0  0  0  0  0  0  0  0  0  0  0  0
   -1.7688    0.1183    0.0000 S   0  0  0  0  0  0  0  0  0  0  0  0
   -2.0838    0.7179    1.2492 O   0  0  0  0  0  0  0  0  0  0  0  0
   -2.0837    0.7157   -1.2502 O   0  0  0  0  0  0  0  0  0  0  0  0
   -2.4911   -1.3719    0.0013 N   0  0  0  0  0  0  0  0  0  0  0  0
    4.1813    0.9345    0.0004 H   0  0  0  0  0  0  0  0  0  0  0  0
    4.4152   -0.7292    0.0063 H   0  0  0  0  0  0  0  0  0  0  0  0
   -1.9466   -2.1747    0.0020 H   0  0  0  0  0  0  0  0  0  0  0  0
   -3.4585   -1.4420    0.0013 H   0  0  0  0  0  0  0  0  0  0  0  0
  1  2  1  0  0  0  0
  2  3  1  0  0  0  0
  3  4  1  0  0  0  0
  4  5  2  0  0  0  0
  5  6  1  0  0  0  0
  2  6  2  0  0  0  0
  4  7  1  0  0  0  0
  7  8  2  0  0  0  0
  7  9  2  0  0  0  0
  7 10  1  0  0  0  0
  1 11  1  0  0  0  0
  1 12  1  0  0  0  0
 10 13  1  0  0  0  0
 10 14  1  0  0  0  0
M  END
$$$$
