C13H10N2
APtclcactv12071713243D 0   0.00000     0.00000
 
 25 27  0  0  0  0  0  0  0  0999 V2000
    4.5282    0.8545    0.0009 N   0  0  0  0  0  0  0  0  0  0  0  0
    3.2453    0.3033    0.0007 C   0  0  0  0  0  0  0  0  0  0  0  0
    2.1620    1.1333    0.0002 C   0  0  0  0  0  0  0  0  0  0  0  0
    0.8662    0.5810   -0.0001 C   0  0  0  0  0  0  0  0  0  0  0  0
   -0.2694    1.3952   -0.0001 C   0  0  0  0  0  0  0  0  0  0  0  0
   -1.5195    0.7710    0.0001 C   0  0  0  0  0  0  0  0  0  0  0  0
   -2.7131    1.5202   -0.0004 C   0  0  0  0  0  0  0  0  0  0  0  0
   -3.9083    0.8741   -0.0006 C   0  0  0  0  0  0  0  0  0  0  0  0
   -3.9857   -0.5182   -0.0003 C   0  0  0  0  0  0  0  0  0  0  0  0
   -2.8735   -1.2971    0.0002 C   0  0  0  0  0  0  0  0  0  0  0  0
   -1.5980   -0.6932    0.0004 C   0  0  0  0  0  0  0  0  0  0  0  0
   -0.4943   -1.4326    0.0013 N   0  0  0  0  0  0  0  0  0  0  0  0
    0.7123   -0.8775    0.0003 C   0  0  0  0  0  0  0  0  0  0  0  0
    1.8758   -1.6783    0.0013 C   0  0  0  0  0  0  0  0  0  0  0  0
    3.0977   -1.0903   -0.0048 C   0  0  0  0  0  0  0  0  0  0  0  0
    4.6423    1.8177    0.0007 H   0  0  0  0  0  0  0  0  0  0  0  0
    5.3054    0.2741    0.0053 H   0  0  0  0  0  0  0  0  0  0  0  0
    2.2971    2.2048    0.0003 H   0  0  0  0  0  0  0  0  0  0  0  0
   -0.1837    2.4718   -0.0000 H   0  0  0  0  0  0  0  0  0  0  0  0
   -2.6781    2.5996   -0.0003 H   0  0  0  0  0  0  0  0  0  0  0  0
   -4.8203    1.4527   -0.0006 H   0  0  0  0  0  0  0  0  0  0  0  0
   -4.9572   -0.9900   -0.0001 H   0  0  0  0  0  0  0  0  0  0  0  0
   -2.9645   -2.3733    0.0008 H   0  0  0  0  0  0  0  0  0  0  0  0
    1.7926   -2.7551    0.0030 H   0  0  0  0  0  0  0  0  0  0  0  0
    3.9805   -1.7124   -0.0038 H   0  0  0  0  0  0  0  0  0  0  0  0
  1  2  1  0  0  0  0
  2  3  2  0  0  0  0
  3  4  1  0  0  0  0
  4  5  2  0  0  0  0
  5  6  1  0  0  0  0
  6  7  2  0  0  0  0
  7  8  1  0  0  0  0
  8  9  2  0  0  0  0
  9 10  1  0  0  0  0
 10 11  2  0  0  0  0
  6 11  1  0  0  0  0
 11 12  1  0  0  0  0
 12 13  2  0  0  0  0
  4 13  1  0  0  0  0
 13 14  1  0  0  0  0
 14 15  2  0  0  0  0
  2 15  1  0  0  0  0
  1 16  1  0  0  0  0
  1 17  1  0  0  0  0
  3 18  1  0  0  0  0
  5 19  1  0  0  0  0
  7 20  1  0  0  0  0
  8 21  1  0  0  0  0
  9 22  1  0  0  0  0
 10 23  1  0  0  0  0
 14 24  1  0  0  0  0
 15 25  1  0  0  0  0
M  END
$$$$
