C10H13N5
APtclcactv12211717253D 0   0.00000     0.00000
 
 28 29  0  0  0  0  0  0  0  0999 V2000
    4.3944    0.8140    0.2508 N   0  0  0  0  0  0  0  0  0  0  0  0
    3.1400    0.2569    0.0902 C   0  0  0  0  0  0  0  0  0  0  0  0
    2.0800    1.0149    0.2930 N   0  0  0  0  0  0  0  0  0  0  0  0
    0.8501    0.5092    0.1462 C   0  0  0  0  0  0  0  0  0  0  0  0
   -0.2435    1.2505    0.3436 N   0  0  0  0  0  0  0  0  0  0  0  0
   -1.4320    0.7094    0.1869 C   0  0  0  0  0  0  0  0  0  0  0  0
   -1.5638   -0.6304   -0.1828 C   0  0  0  0  0  0  0  0  0  0  0  0
   -0.5019   -1.3790   -0.3825 N   0  0  0  0  0  0  0  0  0  0  0  0
    0.7131   -0.8520   -0.2301 C   0  0  0  0  0  0  0  0  0  0  0  0
    1.8847   -1.6109   -0.4325 C   0  0  0  0  0  0  0  0  0  0  0  0
    3.0499   -1.0230   -0.2687 N   0  0  0  0  0  0  0  0  0  0  0  0
   -2.9380   -1.2248   -0.3544 C   0  0  0  0  0  0  0  0  0  0  0  0
   -3.4006   -1.8311    0.9721 C   0  0  0  0  0  0  0  0  0  0  0  0
   -2.6660    1.5453    0.4095 C   0  0  0  0  0  0  0  0  0  0  0  0
   -3.0659    2.2239   -0.9022 C   0  0  0  0  0  0  0  0  0  0  0  0
    4.4822    1.7452    0.5079 H   0  0  0  0  0  0  0  0  0  0  0  0
    5.1871    0.2728    0.1104 H   0  0  0  0  0  0  0  0  0  0  0  0
    1.8263   -2.6506   -0.7189 H   0  0  0  0  0  0  0  0  0  0  0  0
   -3.6355   -0.4451   -0.6604 H   0  0  0  0  0  0  0  0  0  0  0  0
   -2.9048   -2.0026   -1.1173 H   0  0  0  0  0  0  0  0  0  0  0  0
   -4.3633   -2.3224    0.8308 H   0  0  0  0  0  0  0  0  0  0  0  0
   -2.6667   -2.5611    1.3135 H   0  0  0  0  0  0  0  0  0  0  0  0
   -3.5014   -1.0416    1.7168 H   0  0  0  0  0  0  0  0  0  0  0  0
   -3.4806    0.9068    0.7513 H   0  0  0  0  0  0  0  0  0  0  0  0
   -2.4591    2.3051    1.1633 H   0  0  0  0  0  0  0  0  0  0  0  0
   -4.0047    2.7599   -0.7625 H   0  0  0  0  0  0  0  0  0  0  0  0
   -2.2873    2.9262   -1.2000 H   0  0  0  0  0  0  0  0  0  0  0  0
   -3.1905    1.4690   -1.6785 H   0  0  0  0  0  0  0  0  0  0  0  0
  1  2  1  0  0  0  0
  2  3  2  0  0  0  0
  3  4  1  0  0  0  0
  4  5  2  0  0  0  0
  5  6  1  0  0  0  0
  6  7  2  0  0  0  0
  7  8  1  0  0  0  0
  8  9  2  0  0  0  0
  4  9  1  0  0  0  0
  9 10  1  0  0  0  0
 10 11  2  0  0  0  0
  2 11  1  0  0  0  0
  7 12  1  0  0  0  0
 12 13  1  0  0  0  0
  6 14  1  0  0  0  0
 14 15  1  0  0  0  0
  1 16  1  0  0  0  0
  1 17  1  0  0  0  0
 10 18  1  0  0  0  0
 12 19  1  0  0  0  0
 12 20  1  0  0  0  0
 13 21  1  0  0  0  0
 13 22  1  0  0  0  0
 13 23  1  0  0  0  0
 14 24  1  0  0  0  0
 14 25  1  0  0  0  0
 15 26  1  0  0  0  0
 15 27  1  0  0  0  0
 15 28  1  0  0  0  0
M  END
$$$$
