C9H18N8
APtclcactv12151716503D 0   0.00000     0.00000
 
 35 35  0  0  0  0  0  0  0  0999 V2000
   -3.0131   -0.1671   -0.9620 N   0  0  0  0  0  0  0  0  0  0  0  0
   -3.9710    0.2219   -0.5211 N   0  3  0  0  0  0  0  0  0  0  0  0
   -4.9290    0.6109   -0.0801 N   0  5  0  0  0  0  0  0  0  0  0  0
   -1.9434   -0.2849   -0.2086 C   0  0  0  0  0  0  0  0  0  0  0  0
   -1.9727    0.0537    1.0909 N   0  0  0  0  0  0  0  0  0  0  0  0
   -0.8580    0.0811    1.8118 C   0  0  0  0  0  0  0  0  0  0  0  0
    0.3209   -0.1006    1.2943 N   0  0  0  0  0  0  0  0  0  0  0  0
    0.5020   -0.2529   -0.1521 C   0  0  0  0  0  0  0  0  0  0  0  0
   -0.7499   -0.7692   -0.7317 N   0  0  0  0  0  0  0  0  0  0  0  0
    0.8254    1.0502   -0.7481 N   0  0  0  0  0  0  0  0  0  0  0  0
    2.0696    1.5921   -0.1856 C   0  0  0  0  0  0  0  0  0  0  0  0
    3.2364    0.6709   -0.5471 C   0  0  0  0  0  0  0  0  0  0  0  0
    2.3240    2.9870   -0.7603 C   0  0  0  0  0  0  0  0  0  0  0  0
    1.9440    1.6828    1.3366 C   0  0  0  0  0  0  0  0  0  0  0  0
    1.5916   -1.2024   -0.4150 N   0  0  0  0  0  0  0  0  0  0  0  0
    1.2926   -2.5198    0.1620 C   0  0  0  0  0  0  0  0  0  0  0  0
    2.4476   -3.4793   -0.1317 C   0  0  0  0  0  0  0  0  0  0  0  0
   -0.9338    0.2626    2.8737 H   0  0  0  0  0  0  0  0  0  0  0  0
   -0.7404   -1.4172   -1.4534 H   0  0  0  0  0  0  0  0  0  0  0  0
    0.8818    0.9841   -1.7534 H   0  0  0  0  0  0  0  0  0  0  0  0
    3.1716    0.3988   -1.6006 H   0  0  0  0  0  0  0  0  0  0  0  0
    4.1781    1.1879   -0.3626 H   0  0  0  0  0  0  0  0  0  0  0  0
    3.1908   -0.2303    0.0644 H   0  0  0  0  0  0  0  0  0  0  0  0
    1.4927    3.6433   -0.5028 H   0  0  0  0  0  0  0  0  0  0  0  0
    3.2472    3.3891   -0.3430 H   0  0  0  0  0  0  0  0  0  0  0  0
    2.4135    2.9224   -1.8447 H   0  0  0  0  0  0  0  0  0  0  0  0
    1.9119    0.6785    1.7590 H   0  0  0  0  0  0  0  0  0  0  0  0
    2.8023    2.2196    1.7406 H   0  0  0  0  0  0  0  0  0  0  0  0
    1.0284    2.2149    1.5945 H   0  0  0  0  0  0  0  0  0  0  0  0
    1.7776   -1.2746   -1.4041 H   0  0  0  0  0  0  0  0  0  0  0  0
    1.1652   -2.4239    1.2402 H   0  0  0  0  0  0  0  0  0  0  0  0
    0.3752   -2.9098   -0.2790 H   0  0  0  0  0  0  0  0  0  0  0  0
    2.2257   -4.4569    0.2964 H   0  0  0  0  0  0  0  0  0  0  0  0
    2.5750   -3.5753   -1.2100 H   0  0  0  0  0  0  0  0  0  0  0  0
    3.3650   -3.0893    0.3093 H   0  0  0  0  0  0  0  0  0  0  0  0
  1  2  2  0  0  0  0
  2  3  2  0  0  0  0
  1  4  1  0  0  0  0
  4  5  2  0  0  0  0
  5  6  1  0  0  0  0
  6  7  2  0  0  0  0
  7  8  1  0  0  0  0
  8  9  1  0  0  0  0
  4  9  1  0  0  0  0
  8 10  1  0  0  0  0
 10 11  1  0  0  0  0
 11 12  1  0  0  0  0
 11 13  1  0  0  0  0
 11 14  1  0  0  0  0
  8 15  1  0  0  0  0
 15 16  1  0  0  0  0
 16 17  1  0  0  0  0
  6 18  1  0  0  0  0
  9 19  1  0  0  0  0
 10 20  1  0  0  0  0
 12 21  1  0  0  0  0
 12 22  1  0  0  0  0
 12 23  1  0  0  0  0
 13 24  1  0  0  0  0
 13 25  1  0  0  0  0
 13 26  1  0  0  0  0
 14 27  1  0  0  0  0
 14 28  1  0  0  0  0
 14 29  1  0  0  0  0
 15 30  1  0  0  0  0
 16 31  1  0  0  0  0
 16 32  1  0  0  0  0
 17 33  1  0  0  0  0
 17 34  1  0  0  0  0
 17 35  1  0  0  0  0
M  CHG  2   2   1   3  -1
M  END
$$$$
