C6H4BrNO3
APtclcactv12211716483D 0   0.00000     0.00000
 
 15 15  0  0  0  0  0  0  0  0999 V2000
   -2.2243   -0.7934   -0.0030 Br  0  0  0  0  0  0  0  0  0  0  0  0
   -0.5819    0.1438   -0.0060 C   0  0  0  0  0  0  0  0  0  0  0  0
   -0.5740    1.5317   -0.0151 C   0  0  0  0  0  0  0  0  0  0  0  0
    0.6327    2.2159   -0.0173 C   0  0  0  0  0  0  0  0  0  0  0  0
    1.8231    1.5150   -0.0105 C   0  0  0  0  0  0  0  0  0  0  0  0
    1.8130    0.1323   -0.0019 C   0  0  0  0  0  0  0  0  0  0  0  0
    0.6122   -0.5526    0.0066 C   0  0  0  0  0  0  0  0  0  0  0  0
    3.0901   -0.6158    0.0043 N   0  3  0  0  0  0  0  0  0  0  0  0
    4.1487   -0.0134    0.0020 O   0  0  0  0  0  0  0  0  0  0  0  0
    3.0825   -1.8337    0.0119 O   0  5  0  0  0  0  0  0  0  0  0  0
   -1.7465    2.2191   -0.0222 O   0  0  0  0  0  0  0  0  0  0  0  0
    0.6415    3.2959   -0.0247 H   0  0  0  0  0  0  0  0  0  0  0  0
    2.7627    2.0476   -0.0122 H   0  0  0  0  0  0  0  0  0  0  0  0
    0.6069   -1.6326    0.0136 H   0  0  0  0  0  0  0  0  0  0  0  0
   -2.0877    2.4238    0.8591 H   0  0  0  0  0  0  0  0  0  0  0  0
  1  2  1  0  0  0  0
  2  3  2  0  0  0  0
  3  4  1  0  0  0  0
  4  5  2  0  0  0  0
  5  6  1  0  0  0  0
  6  7  2  0  0  0  0
  2  7  1  0  0  0  0
  6  8  1  0  0  0  0
  8  9  2  0  0  0  0
  8 10  1  0  0  0  0
  3 11  1  0  0  0  0
  4 12  1  0  0  0  0
  5 13  1  0  0  0  0
  7 14  1  0  0  0  0
 11 15  1  0  0  0  0
M  CHG  2   8   1  10  -1
M  END
$$$$
