C12H18O
APtclcactv12141705283D 0   0.00000     0.00000
 
 31 31  0  0  0  0  0  0  0  0999 V2000
   -1.5521   -0.2652   -0.9696 C   0  0  0  0  0  0  0  0  0  0  0  0
   -2.4613   -0.2787    0.2609 C   0  0  0  0  0  0  0  0  0  0  0  0
   -3.9125   -0.4811   -0.1795 C   0  0  0  0  0  0  0  0  0  0  0  0
   -4.8217   -0.4946    1.0510 C   0  0  0  0  0  0  0  0  0  0  0  0
   -0.1227   -0.0659   -0.5359 C   0  0  0  0  0  0  0  0  0  0  0  0
    0.3375    1.2052   -0.2251 C   0  0  0  0  0  0  0  0  0  0  0  0
    1.6540    1.3854    0.1743 C   0  0  0  0  0  0  0  0  0  0  0  0
    2.5028    0.2993    0.2616 C   0  0  0  0  0  0  0  0  0  0  0  0
    2.0417   -0.9668   -0.0492 C   0  0  0  0  0  0  0  0  0  0  0  0
    0.7289   -1.1498   -0.4419 C   0  0  0  0  0  0  0  0  0  0  0  0
    2.9702   -2.1500    0.0460 C   0  0  0  0  0  0  0  0  0  0  0  0
    3.9328    0.4943    0.6954 C   0  0  0  0  0  0  0  0  0  0  0  0
   -0.4995    2.2723   -0.3122 O   0  0  0  0  0  0  0  0  0  0  0  0
   -1.6424   -1.2141   -1.4985 H   0  0  0  0  0  0  0  0  0  0  0  0
   -1.8481    0.5490   -1.6311 H   0  0  0  0  0  0  0  0  0  0  0  0
   -2.1654   -1.0930    0.9224 H   0  0  0  0  0  0  0  0  0  0  0  0
   -2.3711    0.6701    0.7897 H   0  0  0  0  0  0  0  0  0  0  0  0
   -4.2084    0.3331   -0.8410 H   0  0  0  0  0  0  0  0  0  0  0  0
   -4.0028   -1.4300   -0.7083 H   0  0  0  0  0  0  0  0  0  0  0  0
   -5.8556   -0.6388    0.7373 H   0  0  0  0  0  0  0  0  0  0  0  0
   -4.5258   -1.3089    1.7125 H   0  0  0  0  0  0  0  0  0  0  0  0
   -4.7315    0.4542    1.5799 H   0  0  0  0  0  0  0  0  0  0  0  0
    2.0148    2.3742    0.4165 H   0  0  0  0  0  0  0  0  0  0  0  0
    0.3711   -2.1396   -0.6842 H   0  0  0  0  0  0  0  0  0  0  0  0
    2.9163   -2.5745    1.0485 H   0  0  0  0  0  0  0  0  0  0  0  0
    2.6746   -2.9035   -0.6840 H   0  0  0  0  0  0  0  0  0  0  0  0
    3.9914   -1.8277   -0.1576 H   0  0  0  0  0  0  0  0  0  0  0  0
    3.9993    0.4026    1.7795 H   0  0  0  0  0  0  0  0  0  0  0  0
    4.5610   -0.2636    0.2275 H   0  0  0  0  0  0  0  0  0  0  0  0
    4.2723    1.4849    0.3931 H   0  0  0  0  0  0  0  0  0  0  0  0
   -0.9812    2.4621    0.5045 H   0  0  0  0  0  0  0  0  0  0  0  0
  1  2  1  0  0  0  0
  2  3  1  0  0  0  0
  3  4  1  0  0  0  0
  1  5  1  0  0  0  0
  5  6  2  0  0  0  0
  6  7  1  0  0  0  0
  7  8  2  0  0  0  0
  8  9  1  0  0  0  0
  9 10  2  0  0  0  0
  5 10  1  0  0  0  0
  9 11  1  0  0  0  0
  8 12  1  0  0  0  0
  6 13  1  0  0  0  0
  1 14  1  0  0  0  0
  1 15  1  0  0  0  0
  2 16  1  0  0  0  0
  2 17  1  0  0  0  0
  3 18  1  0  0  0  0
  3 19  1  0  0  0  0
  4 20  1  0  0  0  0
  4 21  1  0  0  0  0
  4 22  1  0  0  0  0
  7 23  1  0  0  0  0
 10 24  1  0  0  0  0
 11 25  1  0  0  0  0
 11 26  1  0  0  0  0
 11 27  1  0  0  0  0
 12 28  1  0  0  0  0
 12 29  1  0  0  0  0
 12 30  1  0  0  0  0
 13 31  1  0  0  0  0
M  END
$$$$
