C4H5ClO2
APtclcactv12211716373D 0   0.00000     0.00000
 
 12 11  0  0  0  0  0  0  0  0999 V2000
   -1.9117   -0.4029   -0.0003 Cl  0  0  0  0  0  0  0  0  0  0  0  0
   -0.1760   -0.3739   -0.0017 C   0  0  0  0  0  0  0  0  0  0  0  0
    0.5380    0.9116   -0.0005 C   0  0  0  0  0  0  0  0  0  0  0  0
    1.7531    0.9319   -0.0015 O   0  0  0  0  0  0  0  0  0  0  0  0
   -0.1554    2.0676    0.0018 O   0  0  0  0  0  0  0  0  0  0  0  0
    0.5089   -1.5158    0.0016 C   0  0  0  0  0  0  0  0  0  0  0  0
    2.0157   -1.4907    0.0004 C   0  0  0  0  0  0  0  0  0  0  0  0
    0.3577    2.8872    0.0025 H   0  0  0  0  0  0  0  0  0  0  0  0
   -0.0154   -2.4600    0.0052 H   0  0  0  0  0  0  0  0  0  0  0  0
    2.3961   -2.5122    0.0036 H   0  0  0  0  0  0  0  0  0  0  0  0
    2.3697   -0.9739   -0.8916 H   0  0  0  0  0  0  0  0  0  0  0  0
    2.3711   -0.9679    0.8884 H   0  0  0  0  0  0  0  0  0  0  0  0
  1  2  1  0  0  0  0
  2  3  1  0  0  0  0
  3  4  2  0  0  0  0
  3  5  1  0  0  0  0
  2  6  2  0  0  0  0
  6  7  1  0  0  0  0
  5  8  1  0  0  0  0
  6  9  1  0  0  0  0
  7 10  1  0  0  0  0
  7 11  1  0  0  0  0
  7 12  1  0  0  0  0
M  END
$$$$
