C8H7ClO3
APtclcactv12151716263D 0   0.00000     0.00000
 
 19 19  0  0  0  0  0  0  0  0999 V2000
   -1.4198   -2.1956    0.0006 Cl  0  0  0  0  0  0  0  0  0  0  0  0
   -1.6665   -0.4772    0.0009 C   0  0  0  0  0  0  0  0  0  0  0  0
   -0.5757    0.3813    0.0007 C   0  0  0  0  0  0  0  0  0  0  0  0
    0.6869   -0.1220    0.0003 O   0  0  0  0  0  0  0  0  0  0  0  0
    1.7611    0.8205    0.0002 C   0  0  0  0  0  0  0  0  0  0  0  0
    3.0757    0.0838   -0.0003 C   0  0  0  0  0  0  0  0  0  0  0  0
    3.0913   -1.1243   -0.0004 O   0  0  0  0  0  0  0  0  0  0  0  0
    4.2295    0.7699   -0.0005 O   0  0  0  0  0  0  0  0  0  0  0  0
   -0.7765    1.7538    0.0005 C   0  0  0  0  0  0  0  0  0  0  0  0
   -2.0607    2.2631    0.0004 C   0  0  0  0  0  0  0  0  0  0  0  0
   -3.1460    1.4063    0.0011 C   0  0  0  0  0  0  0  0  0  0  0  0
   -2.9495    0.0378   -0.0044 C   0  0  0  0  0  0  0  0  0  0  0  0
    1.6950    1.4465   -0.8897 H   0  0  0  0  0  0  0  0  0  0  0  0
    1.6955    1.4463    0.8903 H   0  0  0  0  0  0  0  0  0  0  0  0
    5.0472    0.2537   -0.0008 H   0  0  0  0  0  0  0  0  0  0  0  0
    0.0705    2.4239    0.0007 H   0  0  0  0  0  0  0  0  0  0  0  0
   -2.2172    3.3317    0.0002 H   0  0  0  0  0  0  0  0  0  0  0  0
   -4.1490    1.8068    0.0014 H   0  0  0  0  0  0  0  0  0  0  0  0
   -3.7988   -0.6293   -0.0039 H   0  0  0  0  0  0  0  0  0  0  0  0
  1  2  1  0  0  0  0
  2  3  2  0  0  0  0
  3  4  1  0  0  0  0
  4  5  1  0  0  0  0
  5  6  1  0  0  0  0
  6  7  2  0  0  0  0
  6  8  1  0  0  0  0
  3  9  1  0  0  0  0
  9 10  2  0  0  0  0
 10 11  1  0  0  0  0
 11 12  2  0  0  0  0
  2 12  1  0  0  0  0
  5 13  1  0  0  0  0
  5 14  1  0  0  0  0
  8 15  1  0  0  0  0
  9 16  1  0  0  0  0
 10 17  1  0  0  0  0
 11 18  1  0  0  0  0
 12 19  1  0  0  0  0
M  END
$$$$
