C12H12ClNO
APtclcactv12111704573D 0   0.00000     0.00000
 
 27 27  0  0  0  0  0  0  0  0999 V2000
   -2.3397   -2.6278   -0.1742 Cl  0  0  0  0  0  0  0  0  0  0  0  0
   -0.7855   -1.7268   -0.0209 C   0  0  0  0  0  0  0  0  0  0  0  0
   -1.0705   -0.2537    0.1193 C   0  0  0  0  0  0  0  0  0  0  0  0
   -2.2167    0.1414    0.1559 O   0  0  0  0  0  0  0  0  0  0  0  0
   -0.0519    0.6247    0.2040 N   0  0  0  0  0  0  0  0  0  0  0  0
    1.2673    0.1827    0.0549 C   0  0  0  0  0  0  0  0  0  0  0  0
    1.8820    0.2343   -1.1893 C   0  0  0  0  0  0  0  0  0  0  0  0
    3.1842   -0.2028   -1.3332 C   0  0  0  0  0  0  0  0  0  0  0  0
    3.8757   -0.6918   -0.2401 C   0  0  0  0  0  0  0  0  0  0  0  0
    3.2664   -0.7448    1.0000 C   0  0  0  0  0  0  0  0  0  0  0  0
    1.9666   -0.3031    1.1519 C   0  0  0  0  0  0  0  0  0  0  0  0
   -0.3258    2.0423    0.4523 C   0  0  0  0  0  0  0  0  0  0  0  0
   -1.2036    2.5653   -0.6073 C   0  0  0  0  0  0  0  0  0  0  0  0
   -1.9037    2.9825   -1.4524 C   0  0  0  0  0  0  0  0  0  0  0  0
   -1.0154    2.1985    1.8091 C   0  0  0  0  0  0  0  0  0  0  0  0
   -0.2472   -2.0781    0.8594 H   0  0  0  0  0  0  0  0  0  0  0  0
   -0.1781   -1.8964   -0.9099 H   0  0  0  0  0  0  0  0  0  0  0  0
    1.3422    0.6154   -2.0436 H   0  0  0  0  0  0  0  0  0  0  0  0
    3.6628   -0.1630   -2.3006 H   0  0  0  0  0  0  0  0  0  0  0  0
    4.8938   -1.0333   -0.3553 H   0  0  0  0  0  0  0  0  0  0  0  0
    3.8089   -1.1279    1.8517 H   0  0  0  0  0  0  0  0  0  0  0  0
    1.4914   -0.3445    2.1208 H   0  0  0  0  0  0  0  0  0  0  0  0
    0.6116    2.5985    0.4550 H   0  0  0  0  0  0  0  0  0  0  0  0
   -2.5298    3.3555   -2.2082 H   0  0  0  0  0  0  0  0  0  0  0  0
   -1.9316    1.6082    1.8211 H   0  0  0  0  0  0  0  0  0  0  0  0
   -0.3484    1.8504    2.5978 H   0  0  0  0  0  0  0  0  0  0  0  0
   -1.2573    3.2483    1.9750 H   0  0  0  0  0  0  0  0  0  0  0  0
  1  2  1  0  0  0  0
  2  3  1  0  0  0  0
  3  4  2  0  0  0  0
  3  5  1  0  0  0  0
  5  6  1  0  0  0  0
  6  7  2  0  0  0  0
  7  8  1  0  0  0  0
  8  9  2  0  0  0  0
  9 10  1  0  0  0  0
 10 11  2  0  0  0  0
  6 11  1  0  0  0  0
  5 12  1  0  0  0  0
 12 13  1  0  0  0  0
 13 14  3  0  0  0  0
 12 15  1  0  0  0  0
  2 16  1  0  0  0  0
  2 17  1  0  0  0  0
  7 18  1  0  0  0  0
  8 19  1  0  0  0  0
  9 20  1  0  0  0  0
 10 21  1  0  0  0  0
 11 22  1  0  0  0  0
 12 23  1  0  0  0  0
 14 24  1  0  0  0  0
 15 25  1  0  0  0  0
 15 26  1  0  0  0  0
 15 27  1  0  0  0  0
M  END
$$$$
