C12H7ClO2
APtclcactv12111704543D 0   0.00000     0.00000
 
 22 24  0  0  0  0  0  0  0  0999 V2000
   -4.4240    0.6620   -0.0005 Cl  0  0  0  0  0  0  0  0  0  0  0  0
   -2.8077    0.0286   -0.0009 C   0  0  0  0  0  0  0  0  0  0  0  0
   -1.7268    0.8933   -0.0004 C   0  0  0  0  0  0  0  0  0  0  0  0
   -0.4372    0.3885   -0.0002 C   0  0  0  0  0  0  0  0  0  0  0  0
   -0.2311   -0.9876   -0.0005 C   0  0  0  0  0  0  0  0  0  0  0  0
    1.0347   -1.4861   -0.0008 O   0  0  0  0  0  0  0  0  0  0  0  0
    2.0985   -0.6386   -0.0001 C   0  0  0  0  0  0  0  0  0  0  0  0
    1.8923    0.7375    0.0002 C   0  0  0  0  0  0  0  0  0  0  0  0
    0.6267    1.2359    0.0007 O   0  0  0  0  0  0  0  0  0  0  0  0
    2.9775    1.5980    0.0005 C   0  0  0  0  0  0  0  0  0  0  0  0
    4.2634    1.0882    0.0004 C   0  0  0  0  0  0  0  0  0  0  0  0
    4.4683   -0.2786   -0.0004 C   0  0  0  0  0  0  0  0  0  0  0  0
    3.3884   -1.1430   -0.0002 C   0  0  0  0  0  0  0  0  0  0  0  0
   -1.3161   -1.8483   -0.0010 C   0  0  0  0  0  0  0  0  0  0  0  0
   -2.6023   -1.3392    0.0041 C   0  0  0  0  0  0  0  0  0  0  0  0
   -1.8891    1.9610   -0.0005 H   0  0  0  0  0  0  0  0  0  0  0  0
    2.8199    2.6664    0.0004 H   0  0  0  0  0  0  0  0  0  0  0  0
    5.1092    1.7598    0.0006 H   0  0  0  0  0  0  0  0  0  0  0  0
    5.4738   -0.6727   -0.0008 H   0  0  0  0  0  0  0  0  0  0  0  0
    3.5509   -2.2107   -0.0005 H   0  0  0  0  0  0  0  0  0  0  0  0
   -1.1581   -2.9166   -0.0016 H   0  0  0  0  0  0  0  0  0  0  0  0
   -3.4478   -2.0111    0.0041 H   0  0  0  0  0  0  0  0  0  0  0  0
  1  2  1  0  0  0  0
  2  3  2  0  0  0  0
  3  4  1  0  0  0  0
  4  5  2  0  0  0  0
  5  6  1  0  0  0  0
  6  7  1  0  0  0  0
  7  8  2  0  0  0  0
  8  9  1  0  0  0  0
  4  9  1  0  0  0  0
  8 10  1  0  0  0  0
 10 11  2  0  0  0  0
 11 12  1  0  0  0  0
 12 13  2  0  0  0  0
  7 13  1  0  0  0  0
  5 14  1  0  0  0  0
 14 15  2  0  0  0  0
  2 15  1  0  0  0  0
  3 16  1  0  0  0  0
 10 17  1  0  0  0  0
 11 18  1  0  0  0  0
 12 19  1  0  0  0  0
 13 20  1  0  0  0  0
 14 21  1  0  0  0  0
 15 22  1  0  0  0  0
M  END
$$$$
