C9H16ClN5
APtclcactv12151716503D 0   0.00000     0.00000
 
 31 31  0  0  0  0  0  0  0  0999 V2000
    0.2705   -3.1005    0.1051 Cl  0  0  0  0  0  0  0  0  0  0  0  0
    0.1955   -1.3663    0.0782 C   0  0  0  0  0  0  0  0  0  0  0  0
    1.3121   -0.6571    0.0929 N   0  0  0  0  0  0  0  0  0  0  0  0
    1.2579    0.6725    0.0724 C   0  0  0  0  0  0  0  0  0  0  0  0
    0.0807    1.2875    0.0372 N   0  0  0  0  0  0  0  0  0  0  0  0
   -1.0391    0.5722    0.0225 C   0  0  0  0  0  0  0  0  0  0  0  0
   -0.9782   -0.7569    0.0377 N   0  0  0  0  0  0  0  0  0  0  0  0
   -2.2638    1.2072   -0.0135 N   0  0  0  0  0  0  0  0  0  0  0  0
   -3.4979    0.4179   -0.0296 C   0  0  0  0  0  0  0  0  0  0  0  0
   -4.7042    1.3583   -0.0695 C   0  0  0  0  0  0  0  0  0  0  0  0
   -5.9931    0.5340   -0.0863 C   0  0  0  0  0  0  0  0  0  0  0  0
    2.4231    1.4116    0.0881 N   0  0  0  0  0  0  0  0  0  0  0  0
    3.7207    0.7327    0.1274 C   0  0  0  0  0  0  0  0  0  0  0  0
    4.1468    0.3642   -1.2951 C   0  0  0  0  0  0  0  0  0  0  0  0
    4.7647    1.6636    0.7475 C   0  0  0  0  0  0  0  0  0  0  0  0
   -2.3075    2.1761   -0.0282 H   0  0  0  0  0  0  0  0  0  0  0  0
   -3.5077   -0.2232   -0.9110 H   0  0  0  0  0  0  0  0  0  0  0  0
   -3.5470   -0.1980    0.8683 H   0  0  0  0  0  0  0  0  0  0  0  0
   -4.6944    1.9994    0.8119 H   0  0  0  0  0  0  0  0  0  0  0  0
   -4.6551    1.9743   -0.9675 H   0  0  0  0  0  0  0  0  0  0  0  0
   -6.0421   -0.0820    0.8116 H   0  0  0  0  0  0  0  0  0  0  0  0
   -6.8524    1.2039   -0.1148 H   0  0  0  0  0  0  0  0  0  0  0  0
   -6.0028   -0.1072   -0.9678 H   0  0  0  0  0  0  0  0  0  0  0  0
    2.3830    2.3807    0.0732 H   0  0  0  0  0  0  0  0  0  0  0  0
    3.6389   -0.1730    0.7283 H   0  0  0  0  0  0  0  0  0  0  0  0
    5.1122   -0.1409   -1.2659 H   0  0  0  0  0  0  0  0  0  0  0  0
    3.4030   -0.2990   -1.7368 H   0  0  0  0  0  0  0  0  0  0  0  0
    4.2286    1.2699   -1.8960 H   0  0  0  0  0  0  0  0  0  0  0  0
    4.4612    1.9261    1.7609 H   0  0  0  0  0  0  0  0  0  0  0  0
    5.7302    1.1585    0.7767 H   0  0  0  0  0  0  0  0  0  0  0  0
    4.8466    2.5693    0.1465 H   0  0  0  0  0  0  0  0  0  0  0  0
  1  2  1  0  0  0  0
  2  3  2  0  0  0  0
  3  4  1  0  0  0  0
  4  5  2  0  0  0  0
  5  6  1  0  0  0  0
  6  7  2  0  0  0  0
  2  7  1  0  0  0  0
  6  8  1  0  0  0  0
  8  9  1  0  0  0  0
  9 10  1  0  0  0  0
 10 11  1  0  0  0  0
  4 12  1  0  0  0  0
 12 13  1  0  0  0  0
 13 14  1  0  0  0  0
 13 15  1  0  0  0  0
  8 16  1  0  0  0  0
  9 17  1  0  0  0  0
  9 18  1  0  0  0  0
 10 19  1  0  0  0  0
 10 20  1  0  0  0  0
 11 21  1  0  0  0  0
 11 22  1  0  0  0  0
 11 23  1  0  0  0  0
 12 24  1  0  0  0  0
 13 25  1  0  0  0  0
 14 26  1  0  0  0  0
 14 27  1  0  0  0  0
 14 28  1  0  0  0  0
 15 29  1  0  0  0  0
 15 30  1  0  0  0  0
 15 31  1  0  0  0  0
M  END
$$$$
