C14H13ClN4O
APtclcactv12091703023D 0   0.00000     0.00000
 
 33 35  0  0  0  0  0  0  0  0999 V2000
   -4.3992   -0.7665    0.6884 Cl  0  0  0  0  0  0  0  0  0  0  0  0
   -2.8950    0.0564    0.4166 C   0  0  0  0  0  0  0  0  0  0  0  0
   -2.7817    1.3948    0.7406 C   0  0  0  0  0  0  0  0  0  0  0  0
   -1.5827    2.0500    0.5014 C   0  0  0  0  0  0  0  0  0  0  0  0
   -0.5270    1.3295   -0.0485 C   0  0  0  0  0  0  0  0  0  0  0  0
    0.6645    1.9886   -0.3461 N   0  0  0  0  0  0  0  0  0  0  0  0
    1.8928    1.5180   -0.1875 C   0  0  0  0  0  0  0  0  0  0  0  0
    2.2403    0.1848    0.3123 C   0  0  0  0  0  0  0  0  0  0  0  0
    1.4948   -0.9453   -0.0578 C   0  0  0  0  0  0  0  0  0  0  0  0
    0.3466   -0.7957   -0.8170 N   0  0  0  0  0  0  0  0  0  0  0  0
   -0.7029   -0.0237   -0.3206 C   0  0  0  0  0  0  0  0  0  0  0  0
   -1.8729   -0.6060   -0.0917 N   0  0  0  0  0  0  0  0  0  0  0  0
    0.2355   -1.4419   -2.1271 C   0  0  0  0  0  0  0  0  0  0  0  0
   -0.3691   -2.8372   -1.9580 C   0  0  0  0  0  0  0  0  0  0  0  0
    1.8659   -2.1516    0.3459 N   0  0  0  0  0  0  0  0  0  0  0  0
    2.9049   -2.3310    1.1376 C   0  0  0  0  0  0  0  0  0  0  0  0
    3.6606   -1.2607    1.5814 C   0  0  0  0  0  0  0  0  0  0  0  0
    3.3361    0.0193    1.1672 C   0  0  0  0  0  0  0  0  0  0  0  0
    2.8122    2.2567   -0.4827 O   0  0  0  0  0  0  0  0  0  0  0  0
    0.5463    3.3431   -0.8916 C   0  0  0  0  0  0  0  0  0  0  0  0
   -3.6169    1.9245    1.1746 H   0  0  0  0  0  0  0  0  0  0  0  0
   -1.4711    3.0981    0.7369 H   0  0  0  0  0  0  0  0  0  0  0  0
   -0.4064   -0.8438   -2.7740 H   0  0  0  0  0  0  0  0  0  0  0  0
    1.2253   -1.5267   -2.5755 H   0  0  0  0  0  0  0  0  0  0  0  0
   -1.3590   -2.7523   -1.5096 H   0  0  0  0  0  0  0  0  0  0  0  0
   -0.4518   -3.3179   -2.9327 H   0  0  0  0  0  0  0  0  0  0  0  0
    0.2727   -3.4353   -1.3111 H   0  0  0  0  0  0  0  0  0  0  0  0
    3.1705   -3.3315    1.4455 H   0  0  0  0  0  0  0  0  0  0  0  0
    4.4970   -1.4227    2.2451 H   0  0  0  0  0  0  0  0  0  0  0  0
    3.9143    0.8701    1.4961 H   0  0  0  0  0  0  0  0  0  0  0  0
    0.5414    4.0647   -0.0747 H   0  0  0  0  0  0  0  0  0  0  0  0
    1.3915    3.5448   -1.5496 H   0  0  0  0  0  0  0  0  0  0  0  0
   -0.3821    3.4275   -1.4565 H   0  0  0  0  0  0  0  0  0  0  0  0
  1  2  1  0  0  0  0
  2  3  1  0  0  0  0
  3  4  2  0  0  0  0
  4  5  1  0  0  0  0
  5  6  1  0  0  0  0
  6  7  1  0  0  0  0
  7  8  1  0  0  0  0
  8  9  2  0  0  0  0
  9 10  1  0  0  0  0
 10 11  1  0  0  0  0
  5 11  2  0  0  0  0
 11 12  1  0  0  0  0
  2 12  2  0  0  0  0
 10 13  1  0  0  0  0
 13 14  1  0  0  0  0
  9 15  1  0  0  0  0
 15 16  2  0  0  0  0
 16 17  1  0  0  0  0
 17 18  2  0  0  0  0
  8 18  1  0  0  0  0
  7 19  2  0  0  0  0
  6 20  1  0  0  0  0
  3 21  1  0  0  0  0
  4 22  1  0  0  0  0
 13 23  1  0  0  0  0
 13 24  1  0  0  0  0
 14 25  1  0  0  0  0
 14 26  1  0  0  0  0
 14 27  1  0  0  0  0
 16 28  1  0  0  0  0
 17 29  1  0  0  0  0
 18 30  1  0  0  0  0
 20 31  1  0  0  0  0
 20 32  1  0  0  0  0
 20 33  1  0  0  0  0
M  END
$$$$
