C5H4ClN5
APtclcactv12211716413D 0   0.00000     0.00000
 
 15 16  0  0  0  0  0  0  0  0999 V2000
   -3.0884   -0.4148   -0.0008 Cl  0  0  0  0  0  0  0  0  0  0  0  0
   -1.3762   -0.1283   -0.0006 C   0  0  0  0  0  0  0  0  0  0  0  0
   -0.9403    1.1195   -0.0000 N   0  0  0  0  0  0  0  0  0  0  0  0
    0.3620    1.3924    0.0002 C   0  0  0  0  0  0  0  0  0  0  0  0
    1.2662    0.3289   -0.0002 C   0  0  0  0  0  0  0  0  0  0  0  0
    2.6405    0.2115   -0.0001 N   0  0  0  0  0  0  0  0  0  0  0  0
    2.9281   -1.1096   -0.0006 C   0  0  0  0  0  0  0  0  0  0  0  0
    1.8269   -1.8081   -0.0010 N   0  0  0  0  0  0  0  0  0  0  0  0
    0.7634   -0.9826   -0.0007 C   0  0  0  0  0  0  0  0  0  0  0  0
   -0.5614   -1.1616    0.0045 N   0  0  0  0  0  0  0  0  0  0  0  0
    0.8106    2.7033    0.0003 N   0  0  0  0  0  0  0  0  0  0  0  0
    3.2808    0.9402   -0.0001 H   0  0  0  0  0  0  0  0  0  0  0  0
    3.9247   -1.5258   -0.0011 H   0  0  0  0  0  0  0  0  0  0  0  0
    0.1729    3.4342    0.0002 H   0  0  0  0  0  0  0  0  0  0  0  0
    1.7625    2.8901    0.0005 H   0  0  0  0  0  0  0  0  0  0  0  0
  1  2  1  0  0  0  0
  2  3  2  0  0  0  0
  3  4  1  0  0  0  0
  4  5  2  0  0  0  0
  5  6  1  0  0  0  0
  6  7  1  0  0  0  0
  7  8  2  0  0  0  0
  8  9  1  0  0  0  0
  5  9  1  0  0  0  0
  9 10  2  0  0  0  0
  2 10  1  0  0  0  0
  4 11  1  0  0  0  0
  6 12  1  0  0  0  0
  7 13  1  0  0  0  0
 11 14  1  0  0  0  0
 11 15  1  0  0  0  0
M  END
$$$$
