C8H18O
APtclcactv12151716403D 0   0.00000     0.00000
 
 27 26  0  0  0  0  0  0  0  0999 V2000
   -0.9963   -1.1393    0.4770 C   0  0  0  0  0  0  0  0  0  0  0  0
   -2.2793   -1.7679   -0.0704 C   0  0  0  0  0  0  0  0  0  0  0  0
   -0.7676    0.2175   -0.1921 C   0  0  0  0  0  0  0  0  0  0  0  0
   -1.8950    1.1753    0.1983 C   0  0  0  0  0  0  0  0  0  0  0  0
   -3.1251    0.7192   -0.3682 O   0  0  0  0  0  0  0  0  0  0  0  0
    0.5731    0.7935    0.2680 C   0  0  0  0  0  0  0  0  0  0  0  0
    1.7103   -0.1005   -0.2305 C   0  0  0  0  0  0  0  0  0  0  0  0
    3.0510    0.4754    0.2296 C   0  0  0  0  0  0  0  0  0  0  0  0
    4.1881   -0.4186   -0.2689 C   0  0  0  0  0  0  0  0  0  0  0  0
   -1.0899   -1.0020    1.5542 H   0  0  0  0  0  0  0  0  0  0  0  0
   -0.1517   -1.7953    0.2663 H   0  0  0  0  0  0  0  0  0  0  0  0
   -2.3606   -2.7954    0.2844 H   0  0  0  0  0  0  0  0  0  0  0  0
   -3.1403   -1.1953    0.2745 H   0  0  0  0  0  0  0  0  0  0  0  0
   -2.2512   -1.7610   -1.1600 H   0  0  0  0  0  0  0  0  0  0  0  0
   -0.7565    0.0915   -1.2747 H   0  0  0  0  0  0  0  0  0  0  0  0
   -1.9849    1.2073    1.2842 H   0  0  0  0  0  0  0  0  0  0  0  0
   -1.6701    2.1736   -0.1772 H   0  0  0  0  0  0  0  0  0  0  0  0
   -3.8852    1.2799   -0.1612 H   0  0  0  0  0  0  0  0  0  0  0  0
    0.6958    1.7976   -0.1379 H   0  0  0  0  0  0  0  0  0  0  0  0
    0.5955    0.8366    1.3569 H   0  0  0  0  0  0  0  0  0  0  0  0
    1.5877   -1.1047    0.1755 H   0  0  0  0  0  0  0  0  0  0  0  0
    1.6879   -0.1436   -1.3194 H   0  0  0  0  0  0  0  0  0  0  0  0
    3.1736    1.4795   -0.1763 H   0  0  0  0  0  0  0  0  0  0  0  0
    3.0734    0.5185    1.3186 H   0  0  0  0  0  0  0  0  0  0  0  0
    4.0655   -1.4228    0.1371 H   0  0  0  0  0  0  0  0  0  0  0  0
    4.1657   -0.4617   -1.3578 H   0  0  0  0  0  0  0  0  0  0  0  0
    5.1433   -0.0083    0.0589 H   0  0  0  0  0  0  0  0  0  0  0  0
  1  2  1  0  0  0  0
  1  3  1  0  0  0  0
  3  4  1  0  0  0  0
  4  5  1  0  0  0  0
  3  6  1  0  0  0  0
  6  7  1  0  0  0  0
  7  8  1  0  0  0  0
  8  9  1  0  0  0  0
  1 10  1  0  0  0  0
  1 11  1  0  0  0  0
  2 12  1  0  0  0  0
  2 13  1  0  0  0  0
  2 14  1  0  0  0  0
  3 15  1  0  0  0  0
  4 16  1  0  0  0  0
  4 17  1  0  0  0  0
  5 18  1  0  0  0  0
  6 19  1  0  0  0  0
  6 20  1  0  0  0  0
  7 21  1  0  0  0  0
  7 22  1  0  0  0  0
  8 23  1  0  0  0  0
  8 24  1  0  0  0  0
  9 25  1  0  0  0  0
  9 26  1  0  0  0  0
  9 27  1  0  0  0  0
M  END
$$$$
