C7H13NO2S
APtclcactv12151716213D 0   0.00000     0.00000
 
 24 24  0  0  0  0  0  0  0  0999 V2000
   -2.2359    0.8112   -0.9458 C   0  0  0  0  0  0  0  0  0  0  0  0
   -3.6328    0.3351   -0.5421 C   0  0  0  0  0  0  0  0  0  0  0  0
   -1.2256    0.3936    0.1246 C   0  0  0  0  0  0  0  0  0  0  0  0
   -1.0658   -1.4343    0.1725 S   0  0  0  0  0  0  0  0  0  0  0  0
    0.7694   -1.4284    0.3339 C   0  0  0  0  0  0  0  0  0  0  0  0
    1.1054   -0.1633   -0.5034 C   0  0  0  0  0  0  0  0  0  0  0  0
    0.1209    0.8851   -0.2218 N   0  0  0  0  0  0  0  0  0  0  0  0
    2.4822    0.3294   -0.1390 C   0  0  0  0  0  0  0  0  0  0  0  0
    2.6235    1.4318    0.3347 O   0  0  0  0  0  0  0  0  0  0  0  0
    3.5514   -0.4566   -0.3408 O   0  0  0  0  0  0  0  0  0  0  0  0
   -1.6524    0.9261    1.4940 C   0  0  0  0  0  0  0  0  0  0  0  0
   -1.9606    0.3622   -1.9001 H   0  0  0  0  0  0  0  0  0  0  0  0
   -2.2357    1.8970   -1.0416 H   0  0  0  0  0  0  0  0  0  0  0  0
   -4.3525    0.6326   -1.3047 H   0  0  0  0  0  0  0  0  0  0  0  0
   -3.6329   -0.7507   -0.4463 H   0  0  0  0  0  0  0  0  0  0  0  0
   -3.9080    0.7841    0.4122 H   0  0  0  0  0  0  0  0  0  0  0  0
    1.0757   -1.3089    1.3732 H   0  0  0  0  0  0  0  0  0  0  0  0
    1.2091   -2.3235   -0.1061 H   0  0  0  0  0  0  0  0  0  0  0  0
    1.0782   -0.4119   -1.5643 H   0  0  0  0  0  0  0  0  0  0  0  0
    0.0787    1.5536   -0.9764 H   0  0  0  0  0  0  0  0  0  0  0  0
    4.4138   -0.0971   -0.0915 H   0  0  0  0  0  0  0  0  0  0  0  0
   -2.6315    0.5223    1.7518 H   0  0  0  0  0  0  0  0  0  0  0  0
   -0.9242    0.6212    2.2455 H   0  0  0  0  0  0  0  0  0  0  0  0
   -1.7057    2.0143    1.4602 H   0  0  0  0  0  0  0  0  0  0  0  0
  1  2  1  0  0  0  0
  1  3  1  0  0  0  0
  3  4  1  0  0  0  0
  4  5  1  0  0  0  0
  5  6  1  0  0  0  0
  6  7  1  0  0  0  0
  3  7  1  0  0  0  0
  6  8  1  0  0  0  0
  8  9  2  0  0  0  0
  8 10  1  0  0  0  0
  3 11  1  0  0  0  0
  1 12  1  0  0  0  0
  1 13  1  0  0  0  0
  2 14  1  0  0  0  0
  2 15  1  0  0  0  0
  2 16  1  0  0  0  0
  5 17  1  0  0  0  0
  5 18  1  0  0  0  0
  6 19  1  0  0  0  0
  7 20  1  0  0  0  0
 10 21  1  0  0  0  0
 11 22  1  0  0  0  0
 11 23  1  0  0  0  0
 11 24  1  0  0  0  0
M  END
$$$$
