C18H25N3O2
APtclcactv12211717183D 0   0.00000     0.00000
 
 48 49  0  0  0  0  0  0  0  0999 V2000
   -4.3867   -3.0319   -0.2058 C   0  0  0  0  0  0  0  0  0  0  0  0
   -4.5095   -4.5526   -0.3212 C   0  0  0  0  0  0  0  0  0  0  0  0
   -3.0058   -2.6642   -0.2054 O   0  0  0  0  0  0  0  0  0  0  0  0
   -2.7208   -1.3421   -0.1087 C   0  0  0  0  0  0  0  0  0  0  0  0
   -3.7119   -0.4864   -0.0222 N   0  0  0  0  0  0  0  0  0  0  0  0
   -3.5119    0.8311    0.0758 C   0  0  0  0  0  0  0  0  0  0  0  0
   -4.5933    1.7248    0.1677 C   0  0  0  0  0  0  0  0  0  0  0  0
   -4.3574    3.0621    0.2669 C   0  0  0  0  0  0  0  0  0  0  0  0
   -3.0585    3.5639    0.2792 C   0  0  0  0  0  0  0  0  0  0  0  0
   -1.9856    2.7268    0.1915 C   0  0  0  0  0  0  0  0  0  0  0  0
   -2.1926    1.3471    0.0889 C   0  0  0  0  0  0  0  0  0  0  0  0
   -1.0731    0.4099   -0.0070 C   0  0  0  0  0  0  0  0  0  0  0  0
   -1.3798   -0.9400   -0.0992 C   0  0  0  0  0  0  0  0  0  0  0  0
    0.3288    0.8821    0.0001 C   0  0  0  0  0  0  0  0  0  0  0  0
    0.5688    2.0735   -0.0100 O   0  0  0  0  0  0  0  0  0  0  0  0
    1.3399   -0.0089    0.0179 N   0  0  0  0  0  0  0  0  0  0  0  0
    2.7282    0.4587    0.0250 C   0  0  0  0  0  0  0  0  0  0  0  0
    3.6719   -0.7455    0.0454 C   0  0  0  0  0  0  0  0  0  0  0  0
    5.0640   -0.2766    0.0524 N   0  0  0  0  0  0  0  0  0  0  0  0
    5.9919   -1.3860    0.3099 C   0  0  0  0  0  0  0  0  0  0  0  0
    5.9654   -1.7380    1.7986 C   0  0  0  0  0  0  0  0  0  0  0  0
    5.3959    0.4063   -1.2051 C   0  0  0  0  0  0  0  0  0  0  0  0
    6.6885    1.2050   -1.0260 C   0  0  0  0  0  0  0  0  0  0  0  0
   -4.8877   -2.5617   -1.0520 H   0  0  0  0  0  0  0  0  0  0  0  0
   -4.8515   -2.6992    0.7223 H   0  0  0  0  0  0  0  0  0  0  0  0
   -5.5628   -4.8330   -0.3215 H   0  0  0  0  0  0  0  0  0  0  0  0
   -4.0447   -4.8853   -1.2493 H   0  0  0  0  0  0  0  0  0  0  0  0
   -4.0086   -5.0228    0.5250 H   0  0  0  0  0  0  0  0  0  0  0  0
   -5.6069    1.3521    0.1592 H   0  0  0  0  0  0  0  0  0  0  0  0
   -5.1913    3.7448    0.3369 H   0  0  0  0  0  0  0  0  0  0  0  0
   -2.8989    4.6291    0.3588 H   0  0  0  0  0  0  0  0  0  0  0  0
   -0.9823    3.1265    0.2019 H   0  0  0  0  0  0  0  0  0  0  0  0
   -0.5908   -1.6739   -0.1721 H   0  0  0  0  0  0  0  0  0  0  0  0
    1.1483   -0.9597    0.0260 H   0  0  0  0  0  0  0  0  0  0  0  0
    2.9162    1.0525   -0.8696 H   0  0  0  0  0  0  0  0  0  0  0  0
    2.9010    1.0707    0.9102 H   0  0  0  0  0  0  0  0  0  0  0  0
    3.4839   -1.3392    0.9399 H   0  0  0  0  0  0  0  0  0  0  0  0
    3.4991   -1.3575   -0.8399 H   0  0  0  0  0  0  0  0  0  0  0  0
    5.6899   -2.2552   -0.2744 H   0  0  0  0  0  0  0  0  0  0  0  0
    7.0011   -1.0892    0.0246 H   0  0  0  0  0  0  0  0  0  0  0  0
    6.6431   -2.5706    1.9872 H   0  0  0  0  0  0  0  0  0  0  0  0
    6.2811   -0.8731    2.3821 H   0  0  0  0  0  0  0  0  0  0  0  0
    4.9531   -2.0210    2.0871 H   0  0  0  0  0  0  0  0  0  0  0  0
    5.5319   -0.3326   -1.9949 H   0  0  0  0  0  0  0  0  0  0  0  0
    4.5854    1.0828   -1.4762 H   0  0  0  0  0  0  0  0  0  0  0  0
    6.8630    1.8171   -1.9109 H   0  0  0  0  0  0  0  0  0  0  0  0
    6.5996    1.8486   -0.1508 H   0  0  0  0  0  0  0  0  0  0  0  0
    7.5239    0.5184   -0.8887 H   0  0  0  0  0  0  0  0  0  0  0  0
  1  2  1  0  0  0  0
  1  3  1  0  0  0  0
  3  4  1  0  0  0  0
  4  5  2  0  0  0  0
  5  6  1  0  0  0  0
  6  7  2  0  0  0  0
  7  8  1  0  0  0  0
  8  9  2  0  0  0  0
  9 10  1  0  0  0  0
 10 11  2  0  0  0  0
  6 11  1  0  0  0  0
 11 12  1  0  0  0  0
 12 13  2  0  0  0  0
  4 13  1  0  0  0  0
 12 14  1  0  0  0  0
 14 15  2  0  0  0  0
 14 16  1  0  0  0  0
 16 17  1  0  0  0  0
 17 18  1  0  0  0  0
 18 19  1  0  0  0  0
 19 20  1  0  0  0  0
 20 21  1  0  0  0  0
 19 22  1  0  0  0  0
 22 23  1  0  0  0  0
  1 24  1  0  0  0  0
  1 25  1  0  0  0  0
  2 26  1  0  0  0  0
  2 27  1  0  0  0  0
  2 28  1  0  0  0  0
  7 29  1  0  0  0  0
  8 30  1  0  0  0  0
  9 31  1  0  0  0  0
 10 32  1  0  0  0  0
 13 33  1  0  0  0  0
 16 34  1  0  0  0  0
 17 35  1  0  0  0  0
 17 36  1  0  0  0  0
 18 37  1  0  0  0  0
 18 38  1  0  0  0  0
 20 39  1  0  0  0  0
 20 40  1  0  0  0  0
 21 41  1  0  0  0  0
 21 42  1  0  0  0  0
 21 43  1  0  0  0  0
 22 44  1  0  0  0  0
 22 45  1  0  0  0  0
 23 46  1  0  0  0  0
 23 47  1  0  0  0  0
 23 48  1  0  0  0  0
M  END
$$$$
