C5H4O3
APtclcactv12211716423D 0   0.00000     0.00000
 
 12 12  0  0  0  0  0  0  0  0999 V2000
    0.8512    1.0557    0.0000 O   0  0  0  0  0  0  0  0  0  0  0  0
    0.0796   -0.0513   -0.0002 C   0  0  0  0  0  0  0  0  0  0  0  0
    0.9042   -1.1409   -0.0002 C   0  0  0  0  0  0  0  0  0  0  0  0
    2.2192   -0.6515    0.0001 C   0  0  0  0  0  0  0  0  0  0  0  0
    2.1416    0.6980    0.0002 C   0  0  0  0  0  0  0  0  0  0  0  0
   -1.3848   -0.0800   -0.0000 C   0  0  0  0  0  0  0  0  0  0  0  0
   -1.9722   -1.1450    0.0002 O   0  0  0  0  0  0  0  0  0  0  0  0
   -2.0820    1.0748   -0.0001 O   0  0  0  0  0  0  0  0  0  0  0  0
    0.6023   -2.1778   -0.0003 H   0  0  0  0  0  0  0  0  0  0  0  0
    3.1234   -1.2421    0.0001 H   0  0  0  0  0  0  0  0  0  0  0  0
    2.9822    1.3761    0.0000 H   0  0  0  0  0  0  0  0  0  0  0  0
   -3.0465    1.0053    0.0001 H   0  0  0  0  0  0  0  0  0  0  0  0
  1  2  1  0  0  0  0
  2  3  2  0  0  0  0
  3  4  1  0  0  0  0
  4  5  2  0  0  0  0
  1  5  1  0  0  0  0
  2  6  1  0  0  0  0
  6  7  2  0  0  0  0
  6  8  1  0  0  0  0
  3  9  1  0  0  0  0
  4 10  1  0  0  0  0
  5 11  1  0  0  0  0
  8 12  1  0  0  0  0
M  END
$$$$
