C7H16O
APtclcactv12151716233D 0   0.00000     0.00000
 
 24 23  0  0  0  0  0  0  0  0999 V2000
    3.3192   -0.9076    0.0090 C   0  0  0  0  0  0  0  0  0  0  0  0
    2.1459    0.0144   -0.3290 C   0  0  0  0  0  0  0  0  0  0  0  0
    0.8403   -0.6268    0.1456 C   0  0  0  0  0  0  0  0  0  0  0  0
   -0.3427    0.2340   -0.3020 C   0  0  0  0  0  0  0  0  0  0  0  0
   -1.6483   -0.4072    0.1726 C   0  0  0  0  0  0  0  0  0  0  0  0
   -2.8314    0.4536   -0.2750 C   0  0  0  0  0  0  0  0  0  0  0  0
   -4.1370   -0.1876    0.1996 C   0  0  0  0  0  0  0  0  0  0  0  0
    2.3244    1.2721    0.3255 O   0  0  0  0  0  0  0  0  0  0  0  0
    4.2493   -0.4508   -0.3291 H   0  0  0  0  0  0  0  0  0  0  0  0
    3.3611   -1.0618    1.0872 H   0  0  0  0  0  0  0  0  0  0  0  0
    3.1830   -1.8669   -0.4902 H   0  0  0  0  0  0  0  0  0  0  0  0
    2.1040    0.1686   -1.4073 H   0  0  0  0  0  0  0  0  0  0  0  0
    0.7477   -1.6239   -0.2849 H   0  0  0  0  0  0  0  0  0  0  0  0
    0.8457   -0.6997    1.2331 H   0  0  0  0  0  0  0  0  0  0  0  0
   -0.2501    1.2310    0.1285 H   0  0  0  0  0  0  0  0  0  0  0  0
   -0.3481    0.3069   -1.3896 H   0  0  0  0  0  0  0  0  0  0  0  0
   -1.7410   -1.4042   -0.2579 H   0  0  0  0  0  0  0  0  0  0  0  0
   -1.6430   -0.4801    1.2602 H   0  0  0  0  0  0  0  0  0  0  0  0
   -2.7387    1.4507    0.1555 H   0  0  0  0  0  0  0  0  0  0  0  0
   -2.8368    0.5265   -1.3625 H   0  0  0  0  0  0  0  0  0  0  0  0
   -4.2297   -1.1846   -0.2309 H   0  0  0  0  0  0  0  0  0  0  0  0
   -4.1316   -0.2605    1.2872 H   0  0  0  0  0  0  0  0  0  0  0  0
   -4.9798    0.4257   -0.1192 H   0  0  0  0  0  0  0  0  0  0  0  0
    3.1341    1.7360    0.0719 H   0  0  0  0  0  0  0  0  0  0  0  0
  1  2  1  0  0  0  0
  2  3  1  0  0  0  0
  3  4  1  0  0  0  0
  4  5  1  0  0  0  0
  5  6  1  0  0  0  0
  6  7  1  0  0  0  0
  2  8  1  0  0  0  0
  1  9  1  0  0  0  0
  1 10  1  0  0  0  0
  1 11  1  0  0  0  0
  2 12  1  0  0  0  0
  3 13  1  0  0  0  0
  3 14  1  0  0  0  0
  4 15  1  0  0  0  0
  4 16  1  0  0  0  0
  5 17  1  0  0  0  0
  5 18  1  0  0  0  0
  6 19  1  0  0  0  0
  6 20  1  0  0  0  0
  7 21  1  0  0  0  0
  7 22  1  0  0  0  0
  7 23  1  0  0  0  0
  8 24  1  0  0  0  0
M  END
$$$$
