C6H14O
APtclcactv12211717003D 0   0.00000     0.00000
 
 21 20  0  0  0  0  0  0  0  0999 V2000
    2.7713   -0.8382   -0.0300 C   0  0  0  0  0  0  0  0  0  0  0  0
    1.5538    0.0312   -0.3505 C   0  0  0  0  0  0  0  0  0  0  0  0
    0.2897   -0.6440    0.1852 C   0  0  0  0  0  0  0  0  0  0  0  0
   -0.9390    0.1610   -0.2428 C   0  0  0  0  0  0  0  0  0  0  0  0
   -2.2031   -0.5143    0.2929 C   0  0  0  0  0  0  0  0  0  0  0  0
   -3.4318    0.2908   -0.1351 C   0  0  0  0  0  0  0  0  0  0  0  0
    1.7074    1.3115    0.2654 O   0  0  0  0  0  0  0  0  0  0  0  0
    3.6719   -0.3572   -0.4116 H   0  0  0  0  0  0  0  0  0  0  0  0
    2.8552   -0.9621    1.0497 H   0  0  0  0  0  0  0  0  0  0  0  0
    2.6541   -1.8148   -0.4998 H   0  0  0  0  0  0  0  0  0  0  0  0
    1.4699    0.1551   -1.4301 H   0  0  0  0  0  0  0  0  0  0  0  0
    0.2197   -1.6549   -0.2165 H   0  0  0  0  0  0  0  0  0  0  0  0
    0.3344   -0.6878    1.2734 H   0  0  0  0  0  0  0  0  0  0  0  0
   -0.8690    1.1719    0.1589 H   0  0  0  0  0  0  0  0  0  0  0  0
   -0.9837    0.2047   -1.3310 H   0  0  0  0  0  0  0  0  0  0  0  0
   -2.2731   -1.5251   -0.1088 H   0  0  0  0  0  0  0  0  0  0  0  0
   -2.1584   -0.5580    1.3811 H   0  0  0  0  0  0  0  0  0  0  0  0
   -3.3618    1.3017    0.2666 H   0  0  0  0  0  0  0  0  0  0  0  0
   -3.4765    0.3345   -1.2233 H   0  0  0  0  0  0  0  0  0  0  0  0
   -4.3323   -0.1903    0.2465 H   0  0  0  0  0  0  0  0  0  0  0  0
    2.4903    1.7976   -0.0277 H   0  0  0  0  0  0  0  0  0  0  0  0
  1  2  1  0  0  0  0
  2  3  1  0  0  0  0
  3  4  1  0  0  0  0
  4  5  1  0  0  0  0
  5  6  1  0  0  0  0
  2  7  1  0  0  0  0
  1  8  1  0  0  0  0
  1  9  1  0  0  0  0
  1 10  1  0  0  0  0
  2 11  1  0  0  0  0
  3 12  1  0  0  0  0
  3 13  1  0  0  0  0
  4 14  1  0  0  0  0
  4 15  1  0  0  0  0
  5 16  1  0  0  0  0
  5 17  1  0  0  0  0
  6 18  1  0  0  0  0
  6 19  1  0  0  0  0
  6 20  1  0  0  0  0
  7 21  1  0  0  0  0
M  END
$$$$
