C8H6O5
APtclcactv12151716263D 0   0.00000     0.00000
 
 19 19  0  0  0  0  0  0  0  0999 V2000
   -0.0000    1.7269    0.0120 O   0  0  0  0  0  0  0  0  0  0  0  0
   -0.0000    0.3732    0.0048 C   0  0  0  0  0  0  0  0  0  0  0  0
    1.2108   -0.3328    0.0022 C   0  0  0  0  0  0  0  0  0  0  0  0
    2.4921    0.3958    0.0072 C   0  0  0  0  0  0  0  0  0  0  0  0
    2.5000    1.6109    0.0137 O   0  0  0  0  0  0  0  0  0  0  0  0
    3.6547   -0.2855    0.0047 O   0  0  0  0  0  0  0  0  0  0  0  0
    1.1987   -1.7297   -0.0047 C   0  0  0  0  0  0  0  0  0  0  0  0
   -0.0000   -2.4146   -0.0094 C   0  0  0  0  0  0  0  0  0  0  0  0
   -1.1987   -1.7297   -0.0069 C   0  0  0  0  0  0  0  0  0  0  0  0
   -1.2108   -0.3328    0.0059 C   0  0  0  0  0  0  0  0  0  0  0  0
   -2.4921    0.3958    0.0090 C   0  0  0  0  0  0  0  0  0  0  0  0
   -2.5000    1.6109    0.0201 O   0  0  0  0  0  0  0  0  0  0  0  0
   -3.6547   -0.2854   -0.0004 O   0  0  0  0  0  0  0  0  0  0  0  0
    0.0008    2.1249   -0.8693 H   0  0  0  0  0  0  0  0  0  0  0  0
    4.4691    0.2359    0.0082 H   0  0  0  0  0  0  0  0  0  0  0  0
    2.1304   -2.2758   -0.0068 H   0  0  0  0  0  0  0  0  0  0  0  0
    0.0000   -3.4946   -0.0155 H   0  0  0  0  0  0  0  0  0  0  0  0
   -2.1304   -2.2758   -0.0106 H   0  0  0  0  0  0  0  0  0  0  0  0
   -4.4691    0.2359    0.0021 H   0  0  0  0  0  0  0  0  0  0  0  0
  1  2  1  0  0  0  0
  2  3  2  0  0  0  0
  3  4  1  0  0  0  0
  4  5  2  0  0  0  0
  4  6  1  0  0  0  0
  3  7  1  0  0  0  0
  7  8  2  0  0  0  0
  8  9  1  0  0  0  0
  9 10  2  0  0  0  0
  2 10  1  0  0  0  0
 10 11  1  0  0  0  0
 11 12  2  0  0  0  0
 11 13  1  0  0  0  0
  1 14  1  0  0  0  0
  6 15  1  0  0  0  0
  7 16  1  0  0  0  0
  8 17  1  0  0  0  0
  9 18  1  0  0  0  0
 13 19  1  0  0  0  0
M  END
$$$$
