C5H5NO
APtclcactv12211716423D 0   0.00000     0.00000
 
 12 12  0  0  0  0  0  0  0  0999 V2000
    2.2436    0.0013   -0.0369 O   0  0  0  0  0  0  0  0  0  0  0  0
    0.8870    0.0007   -0.0199 C   0  0  0  0  0  0  0  0  0  0  0  0
    0.2315    1.1493   -0.0129 N   0  0  0  0  0  0  0  0  0  0  0  0
   -1.0872    1.1939    0.0037 C   0  0  0  0  0  0  0  0  0  0  0  0
   -1.8344    0.0331    0.0148 C   0  0  0  0  0  0  0  0  0  0  0  0
   -1.1840   -1.1934    0.0079 C   0  0  0  0  0  0  0  0  0  0  0  0
    0.1996   -1.2065   -0.0157 C   0  0  0  0  0  0  0  0  0  0  0  0
    2.6480    0.0024    0.8415 H   0  0  0  0  0  0  0  0  0  0  0  0
   -1.5883    2.1506    0.0090 H   0  0  0  0  0  0  0  0  0  0  0  0
   -2.9133    0.0787    0.0290 H   0  0  0  0  0  0  0  0  0  0  0  0
   -1.7450   -2.1161    0.0163 H   0  0  0  0  0  0  0  0  0  0  0  0
    0.7379   -2.1428   -0.0216 H   0  0  0  0  0  0  0  0  0  0  0  0
  1  2  1  0  0  0  0
  2  3  2  0  0  0  0
  3  4  1  0  0  0  0
  4  5  2  0  0  0  0
  5  6  1  0  0  0  0
  6  7  2  0  0  0  0
  2  7  1  0  0  0  0
  1  8  1  0  0  0  0
  4  9  1  0  0  0  0
  5 10  1  0  0  0  0
  6 11  1  0  0  0  0
  7 12  1  0  0  0  0
M  END
$$$$
