C8H17NO
APtclcactv12151716383D 0   0.00000     0.00000
 
 27 26  0  0  0  0  0  0  0  0999 V2000
   -0.6626    1.3503    0.0452 C   0  0  0  0  0  0  0  0  0  0  0  0
   -0.9018    1.3052   -1.4653 C   0  0  0  0  0  0  0  0  0  0  0  0
   -2.0076    1.3831    0.7738 C   0  0  0  0  0  0  0  0  0  0  0  0
    0.1200    0.1078    0.4749 C   0  0  0  0  0  0  0  0  0  0  0  0
   -0.5983   -1.1282   -0.0020 C   0  0  0  0  0  0  0  0  0  0  0  0
   -0.2486   -1.6755   -1.0262 O   0  0  0  0  0  0  0  0  0  0  0  0
   -1.6292   -1.6253    0.7097 N   0  0  0  0  0  0  0  0  0  0  0  0
    1.5217    0.1511   -0.1369 C   0  0  0  0  0  0  0  0  0  0  0  0
    2.2564    1.3981    0.3592 C   0  0  0  0  0  0  0  0  0  0  0  0
    2.2992   -1.0988    0.2805 C   0  0  0  0  0  0  0  0  0  0  0  0
   -0.0915    2.2442    0.2961 H   0  0  0  0  0  0  0  0  0  0  0  0
   -1.5285    2.1472   -1.7593 H   0  0  0  0  0  0  0  0  0  0  0  0
    0.0538    1.3642   -1.9865 H   0  0  0  0  0  0  0  0  0  0  0  0
   -1.4011    0.3721   -1.7265 H   0  0  0  0  0  0  0  0  0  0  0  0
   -2.5774    0.4878    0.5251 H   0  0  0  0  0  0  0  0  0  0  0  0
   -1.8371    1.4182    1.8498 H   0  0  0  0  0  0  0  0  0  0  0  0
   -2.5663    2.2668    0.4654 H   0  0  0  0  0  0  0  0  0  0  0  0
    0.1986    0.0858    1.5618 H   0  0  0  0  0  0  0  0  0  0  0  0
   -1.9619   -1.1432    1.4829 H   0  0  0  0  0  0  0  0  0  0  0  0
   -2.0385   -2.4650    0.4487 H   0  0  0  0  0  0  0  0  0  0  0  0
    1.4430    0.1840   -1.2236 H   0  0  0  0  0  0  0  0  0  0  0  0
    2.3873    1.3370    1.4395 H   0  0  0  0  0  0  0  0  0  0  0  0
    3.2325    1.4603   -0.1221 H   0  0  0  0  0  0  0  0  0  0  0  0
    1.6730    2.2854    0.1134 H   0  0  0  0  0  0  0  0  0  0  0  0
    2.3779   -1.1317    1.3672 H   0  0  0  0  0  0  0  0  0  0  0  0
    1.7758   -1.9872   -0.0729 H   0  0  0  0  0  0  0  0  0  0  0  0
    3.2978   -1.0680   -0.1554 H   0  0  0  0  0  0  0  0  0  0  0  0
  1  2  1  0  0  0  0
  1  3  1  0  0  0  0
  1  4  1  0  0  0  0
  4  5  1  0  0  0  0
  5  6  2  0  0  0  0
  5  7  1  0  0  0  0
  4  8  1  0  0  0  0
  8  9  1  0  0  0  0
  8 10  1  0  0  0  0
  1 11  1  0  0  0  0
  2 12  1  0  0  0  0
  2 13  1  0  0  0  0
  2 14  1  0  0  0  0
  3 15  1  0  0  0  0
  3 16  1  0  0  0  0
  3 17  1  0  0  0  0
  4 18  1  0  0  0  0
  7 19  1  0  0  0  0
  7 20  1  0  0  0  0
  8 21  1  0  0  0  0
  9 22  1  0  0  0  0
  9 23  1  0  0  0  0
  9 24  1  0  0  0  0
 10 25  1  0  0  0  0
 10 26  1  0  0  0  0
 10 27  1  0  0  0  0
M  END
$$$$
