C5H12
APtclcactv12211716463D 0   0.00000     0.00000
 
 17 16  0  0  0  0  0  0  0  0999 V2000
   -0.5537    1.4390   -0.1447 C   0  0  0  0  0  0  0  0  0  0  0  0
   -0.4613   -0.0050    0.3526 C   0  0  0  0  0  0  0  0  0  0  0  0
   -1.7515   -0.7488    0.0017 C   0  0  0  0  0  0  0  0  0  0  0  0
    0.7261   -0.6999   -0.3168 C   0  0  0  0  0  0  0  0  0  0  0  0
    2.0273   -0.0328    0.1333 C   0  0  0  0  0  0  0  0  0  0  0  0
   -0.6928    1.4428   -1.2258 H   0  0  0  0  0  0  0  0  0  0  0  0
   -1.3997    1.9340    0.3322 H   0  0  0  0  0  0  0  0  0  0  0  0
    0.3654    1.9688    0.1053 H   0  0  0  0  0  0  0  0  0  0  0  0
   -0.3223   -0.0088    1.4336 H   0  0  0  0  0  0  0  0  0  0  0  0
   -1.8906   -0.7450   -1.0794 H   0  0  0  0  0  0  0  0  0  0  0  0
   -1.6857   -1.7775    0.3559 H   0  0  0  0  0  0  0  0  0  0  0  0
   -2.5975   -0.2538    0.4785 H   0  0  0  0  0  0  0  0  0  0  0  0
    0.7395   -1.7518   -0.0315 H   0  0  0  0  0  0  0  0  0  0  0  0
    0.6316   -0.6183   -1.3996 H   0  0  0  0  0  0  0  0  0  0  0  0
    2.0139    1.0191   -0.1520 H   0  0  0  0  0  0  0  0  0  0  0  0
    2.1218   -0.1144    1.2161 H   0  0  0  0  0  0  0  0  0  0  0  0
    2.8733   -0.5278   -0.3436 H   0  0  0  0  0  0  0  0  0  0  0  0
  1  2  1  0  0  0  0
  2  3  1  0  0  0  0
  2  4  1  0  0  0  0
  4  5  1  0  0  0  0
  1  6  1  0  0  0  0
  1  7  1  0  0  0  0
  1  8  1  0  0  0  0
  2  9  1  0  0  0  0
  3 10  1  0  0  0  0
  3 11  1  0  0  0  0
  3 12  1  0  0  0  0
  4 13  1  0  0  0  0
  4 14  1  0  0  0  0
  5 15  1  0  0  0  0
  5 16  1  0  0  0  0
  5 17  1  0  0  0  0
M  END
$$$$
