C9H20
APtclcactv12151716523D 0   0.00000     0.00000
 
 29 28  0  0  0  0  0  0  0  0999 V2000
    1.9307   -0.1817   -1.4560 C   0  0  0  0  0  0  0  0  0  0  0  0
    1.7702   -0.3485    0.0564 C   0  0  0  0  0  0  0  0  0  0  0  0
    3.0589    0.0866    0.7571 C   0  0  0  0  0  0  0  0  0  0  0  0
    0.6070    0.5175    0.5444 C   0  0  0  0  0  0  0  0  0  0  0  0
   -0.7007    0.0030   -0.0606 C   0  0  0  0  0  0  0  0  0  0  0  0
   -0.9909   -1.4018    0.4716 C   0  0  0  0  0  0  0  0  0  0  0  0
   -2.2191   -1.9731   -0.2398 C   0  0  0  0  0  0  0  0  0  0  0  0
   -1.8455    0.9414    0.3261 C   0  0  0  0  0  0  0  0  0  0  0  0
   -1.6167    2.3141   -0.3098 C   0  0  0  0  0  0  0  0  0  0  0  0
    2.7594   -0.7986   -1.8036 H   0  0  0  0  0  0  0  0  0  0  0  0
    1.0127   -0.4916   -1.9551 H   0  0  0  0  0  0  0  0  0  0  0  0
    2.1345    0.8639   -1.6866 H   0  0  0  0  0  0  0  0  0  0  0  0
    1.5664   -1.3941    0.2871 H   0  0  0  0  0  0  0  0  0  0  0  0
    3.2626    1.1322    0.5265 H   0  0  0  0  0  0  0  0  0  0  0  0
    2.9445   -0.0322    1.8346 H   0  0  0  0  0  0  0  0  0  0  0  0
    3.8875   -0.5303    0.4095 H   0  0  0  0  0  0  0  0  0  0  0  0
    0.5485    0.4682    1.6317 H   0  0  0  0  0  0  0  0  0  0  0  0
    0.7685    1.5503    0.2357 H   0  0  0  0  0  0  0  0  0  0  0  0
   -0.6100   -0.0314   -1.1463 H   0  0  0  0  0  0  0  0  0  0  0  0
   -0.1311   -2.0456    0.2856 H   0  0  0  0  0  0  0  0  0  0  0  0
   -1.1823   -1.3519    1.5435 H   0  0  0  0  0  0  0  0  0  0  0  0
   -3.0736   -1.3175   -0.0723 H   0  0  0  0  0  0  0  0  0  0  0  0
   -2.0195   -2.0438   -1.3091 H   0  0  0  0  0  0  0  0  0  0  0  0
   -2.4391   -2.9649    0.1551 H   0  0  0  0  0  0  0  0  0  0  0  0
   -2.7895    0.5289   -0.0300 H   0  0  0  0  0  0  0  0  0  0  0  0
   -1.8802    1.0446    1.4106 H   0  0  0  0  0  0  0  0  0  0  0  0
   -1.4592    2.1962   -1.3819 H   0  0  0  0  0  0  0  0  0  0  0  0
   -2.4893    2.9442   -0.1378 H   0  0  0  0  0  0  0  0  0  0  0  0
   -0.7385    2.7798    0.1374 H   0  0  0  0  0  0  0  0  0  0  0  0
  1  2  1  0  0  0  0
  2  3  1  0  0  0  0
  2  4  1  0  0  0  0
  4  5  1  0  0  0  0
  5  6  1  0  0  0  0
  6  7  1  0  0  0  0
  5  8  1  0  0  0  0
  8  9  1  0  0  0  0
  1 10  1  0  0  0  0
  1 11  1  0  0  0  0
  1 12  1  0  0  0  0
  2 13  1  0  0  0  0
  3 14  1  0  0  0  0
  3 15  1  0  0  0  0
  3 16  1  0  0  0  0
  4 17  1  0  0  0  0
  4 18  1  0  0  0  0
  5 19  1  0  0  0  0
  6 20  1  0  0  0  0
  6 21  1  0  0  0  0
  7 22  1  0  0  0  0
  7 23  1  0  0  0  0
  7 24  1  0  0  0  0
  8 25  1  0  0  0  0
  8 26  1  0  0  0  0
  9 27  1  0  0  0  0
  9 28  1  0  0  0  0
  9 29  1  0  0  0  0
M  END
$$$$
