C11H8O3
APtclcactv12211717313D 0   0.00000     0.00000
 
 22 23  0  0  0  0  0  0  0  0999 V2000
    3.9747   -0.2702   -0.3444 C   0  0  0  0  0  0  0  0  0  0  0  0
    2.9435    0.7027   -0.1654 O   0  0  0  0  0  0  0  0  0  0  0  0
    1.6811    0.2392   -0.0141 C   0  0  0  0  0  0  0  0  0  0  0  0
    0.5608    1.1940    0.1761 C   0  0  0  0  0  0  0  0  0  0  0  0
   -0.8294    0.7081    0.0365 C   0  0  0  0  0  0  0  0  0  0  0  0
   -1.8936    1.5940   -0.0701 C   0  0  0  0  0  0  0  0  0  0  0  0
   -3.1846    1.1040   -0.1996 C   0  0  0  0  0  0  0  0  0  0  0  0
   -3.4177   -0.2571   -0.2232 C   0  0  0  0  0  0  0  0  0  0  0  0
   -2.3640   -1.1538   -0.1182 C   0  0  0  0  0  0  0  0  0  0  0  0
   -1.0671   -0.6789    0.0118 C   0  0  0  0  0  0  0  0  0  0  0  0
    0.0810   -1.6076    0.1265 C   0  0  0  0  0  0  0  0  0  0  0  0
    1.4446   -1.0906   -0.0424 C   0  0  0  0  0  0  0  0  0  0  0  0
   -0.1048   -2.7876    0.3539 O   0  0  0  0  0  0  0  0  0  0  0  0
    0.7824    2.3577    0.4431 O   0  0  0  0  0  0  0  0  0  0  0  0
    4.0068   -0.9294    0.5230 H   0  0  0  0  0  0  0  0  0  0  0  0
    3.7690   -0.8572   -1.2395 H   0  0  0  0  0  0  0  0  0  0  0  0
    4.9350    0.2340   -0.4533 H   0  0  0  0  0  0  0  0  0  0  0  0
   -1.7167    2.6592   -0.0525 H   0  0  0  0  0  0  0  0  0  0  0  0
   -4.0134    1.7916   -0.2821 H   0  0  0  0  0  0  0  0  0  0  0  0
   -4.4276   -0.6263   -0.3240 H   0  0  0  0  0  0  0  0  0  0  0  0
   -2.5528   -2.2170   -0.1371 H   0  0  0  0  0  0  0  0  0  0  0  0
    2.2654   -1.7784   -0.1820 H   0  0  0  0  0  0  0  0  0  0  0  0
  1  2  1  0  0  0  0
  2  3  1  0  0  0  0
  3  4  1  0  0  0  0
  4  5  1  0  0  0  0
  5  6  2  0  0  0  0
  6  7  1  0  0  0  0
  7  8  2  0  0  0  0
  8  9  1  0  0  0  0
  9 10  2  0  0  0  0
  5 10  1  0  0  0  0
 10 11  1  0  0  0  0
 11 12  1  0  0  0  0
  3 12  2  0  0  0  0
 11 13  2  0  0  0  0
  4 14  2  0  0  0  0
  1 15  1  0  0  0  0
  1 16  1  0  0  0  0
  1 17  1  0  0  0  0
  6 18  1  0  0  0  0
  7 19  1  0  0  0  0
  8 20  1  0  0  0  0
  9 21  1  0  0  0  0
 12 22  1  0  0  0  0
M  END
$$$$
