C7H7ClO
APtclcactv12151716163D 0   0.00000     0.00000
 
 16 16  0  0  0  0  0  0  0  0999 V2000
    2.0726    1.9491   -0.0095 C   0  0  0  0  0  0  0  0  0  0  0  0
    1.1245    0.7777   -0.0094 C   0  0  0  0  0  0  0  0  0  0  0  0
    1.6214   -0.5173   -0.0171 C   0  0  0  0  0  0  0  0  0  0  0  0
    0.7465   -1.5941   -0.0165 C   0  0  0  0  0  0  0  0  0  0  0  0
   -0.6171   -1.3748   -0.0083 C   0  0  0  0  0  0  0  0  0  0  0  0
   -1.1110   -0.0821   -0.0011 C   0  0  0  0  0  0  0  0  0  0  0  0
   -0.2402    0.9929    0.0041 C   0  0  0  0  0  0  0  0  0  0  0  0
   -2.8253    0.1910    0.0081 Cl  0  0  0  0  0  0  0  0  0  0  0  0
    2.9637   -0.7310   -0.0256 O   0  0  0  0  0  0  0  0  0  0  0  0
    2.2960    2.2356   -1.0371 H   0  0  0  0  0  0  0  0  0  0  0  0
    1.6120    2.7893    0.5101 H   0  0  0  0  0  0  0  0  0  0  0  0
    2.9956    1.6695    0.4986 H   0  0  0  0  0  0  0  0  0  0  0  0
    1.1316   -2.6031   -0.0228 H   0  0  0  0  0  0  0  0  0  0  0  0
   -1.2985   -2.2128   -0.0078 H   0  0  0  0  0  0  0  0  0  0  0  0
   -0.6274    2.0011    0.0098 H   0  0  0  0  0  0  0  0  0  0  0  0
    3.3572   -0.7962    0.8553 H   0  0  0  0  0  0  0  0  0  0  0  0
  1  2  1  0  0  0  0
  2  3  2  0  0  0  0
  3  4  1  0  0  0  0
  4  5  2  0  0  0  0
  5  6  1  0  0  0  0
  6  7  2  0  0  0  0
  2  7  1  0  0  0  0
  6  8  1  0  0  0  0
  3  9  1  0  0  0  0
  1 10  1  0  0  0  0
  1 11  1  0  0  0  0
  1 12  1  0  0  0  0
  4 13  1  0  0  0  0
  5 14  1  0  0  0  0
  7 15  1  0  0  0  0
  9 16  1  0  0  0  0
M  END
$$$$
