C4H9NO2
APtclcactv12211716403D 0   0.00000     0.00000
 
 16 15  0  0  0  0  0  0  0  0999 V2000
    1.1198    0.2196    1.4482 C   0  0  0  0  0  0  0  0  0  0  0  0
    0.6324    0.0385    0.0092 C   0  0  0  0  0  0  0  0  0  0  0  0
    1.0109    1.2133   -0.7874 N   0  0  0  0  0  0  0  0  0  0  0  0
    1.2733   -1.2137   -0.5925 C   0  0  0  0  0  0  0  0  0  0  0  0
   -0.8671   -0.1116    0.0019 C   0  0  0  0  0  0  0  0  0  0  0  0
   -1.3640   -1.2129    0.0032 O   0  0  0  0  0  0  0  0  0  0  0  0
   -1.6506    0.9783   -0.0062 O   0  0  0  0  0  0  0  0  0  0  0  0
    0.6633    1.1117    1.8769 H   0  0  0  0  0  0  0  0  0  0  0  0
    0.8390   -0.6521    2.0393 H   0  0  0  0  0  0  0  0  0  0  0  0
    2.2044    0.3281    1.4535 H   0  0  0  0  0  0  0  0  0  0  0  0
    2.0062    1.3733   -0.7454 H   0  0  0  0  0  0  0  0  0  0  0  0
    0.7000    1.1179   -1.7426 H   0  0  0  0  0  0  0  0  0  0  0  0
    0.9925   -2.0854   -0.0014 H   0  0  0  0  0  0  0  0  0  0  0  0
    0.9261   -1.3427   -1.6177 H   0  0  0  0  0  0  0  0  0  0  0  0
    2.3578   -1.1052   -0.5872 H   0  0  0  0  0  0  0  0  0  0  0  0
   -2.6064    0.8317   -0.0107 H   0  0  0  0  0  0  0  0  0  0  0  0
  1  2  1  0  0  0  0
  2  3  1  0  0  0  0
  2  4  1  0  0  0  0
  2  5  1  0  0  0  0
  5  6  2  0  0  0  0
  5  7  1  0  0  0  0
  1  8  1  0  0  0  0
  1  9  1  0  0  0  0
  1 10  1  0  0  0  0
  3 11  1  0  0  0  0
  3 12  1  0  0  0  0
  4 13  1  0  0  0  0
  4 14  1  0  0  0  0
  4 15  1  0  0  0  0
  7 16  1  0  0  0  0
M  END
$$$$
