C3H4N2S
APtclcactv12211716363D 0   0.00000     0.00000
 
 10 10  0  0  0  0  0  0  0  0999 V2000
    2.3069   -0.0666    0.0010 C   0  0  0  0  0  0  0  0  0  0  0  0
    0.8038   -0.1756    0.0011 C   0  0  0  0  0  0  0  0  0  0  0  0
   -0.2931    1.1391   -0.0006 S   0  0  0  0  0  0  0  0  0  0  0  0
   -1.6046    0.0383    0.0006 C   0  0  0  0  0  0  0  0  0  0  0  0
   -1.1323   -1.1666    0.0021 N   0  0  0  0  0  0  0  0  0  0  0  0
    0.1267   -1.2784   -0.0033 N   0  0  0  0  0  0  0  0  0  0  0  0
    2.6692   -0.0391    1.0287 H   0  0  0  0  0  0  0  0  0  0  0  0
    2.7336   -0.9286   -0.5117 H   0  0  0  0  0  0  0  0  0  0  0  0
    2.6050    0.8467   -0.5139 H   0  0  0  0  0  0  0  0  0  0  0  0
   -2.6511    0.3050    0.0008 H   0  0  0  0  0  0  0  0  0  0  0  0
  1  2  1  0  0  0  0
  2  3  1  0  0  0  0
  3  4  1  0  0  0  0
  4  5  2  0  0  0  0
  5  6  1  0  0  0  0
  2  6  2  0  0  0  0
  1  7  1  0  0  0  0
  1  8  1  0  0  0  0
  1  9  1  0  0  0  0
  4 10  1  0  0  0  0
M  END
$$$$
