C11H20
APtclcactv12111704483D 0   0.00000     0.00000
 
 31 32  0  0  0  0  0  0  0  0999 V2000
   -2.4927    0.5793    1.2722 C   0  0  0  0  0  0  0  0  0  0  0  0
   -2.2990    0.4864   -0.2426 C   0  0  0  0  0  0  0  0  0  0  0  0
   -1.0463    1.2670   -0.6454 C   0  0  0  0  0  0  0  0  0  0  0  0
    0.1738    0.6739    0.0621 C   0  0  0  0  0  0  0  0  0  0  0  0
    1.4264    1.4546   -0.3407 C   0  0  0  0  0  0  0  0  0  0  0  0
    2.6465    0.8615    0.3668 C   0  0  0  0  0  0  0  0  0  0  0  0
    2.8076   -0.6053   -0.0376 C   0  0  0  0  0  0  0  0  0  0  0  0
    1.5549   -1.3859    0.3652 C   0  0  0  0  0  0  0  0  0  0  0  0
    0.3349   -0.7928   -0.3424 C   0  0  0  0  0  0  0  0  0  0  0  0
   -0.9178   -1.5735    0.0605 C   0  0  0  0  0  0  0  0  0  0  0  0
   -2.1379   -0.9804   -0.6471 C   0  0  0  0  0  0  0  0  0  0  0  0
   -2.6075    1.6243    1.5604 H   0  0  0  0  0  0  0  0  0  0  0  0
   -3.3851    0.0232    1.5592 H   0  0  0  0  0  0  0  0  0  0  0  0
   -1.6235    0.1568    1.7763 H   0  0  0  0  0  0  0  0  0  0  0  0
   -3.1681    0.9089   -0.7467 H   0  0  0  0  0  0  0  0  0  0  0  0
   -0.9083    1.2008   -1.7246 H   0  0  0  0  0  0  0  0  0  0  0  0
   -1.1610    2.3120   -0.3573 H   0  0  0  0  0  0  0  0  0  0  0  0
    0.0358    0.7402    1.1413 H   0  0  0  0  0  0  0  0  0  0  0  0
    1.5645    1.3883   -1.4199 H   0  0  0  0  0  0  0  0  0  0  0  0
    1.3117    2.4995   -0.0525 H   0  0  0  0  0  0  0  0  0  0  0  0
    3.5389    1.4176    0.0799 H   0  0  0  0  0  0  0  0  0  0  0  0
    2.5085    0.9277    1.4460 H   0  0  0  0  0  0  0  0  0  0  0  0
    2.9456   -0.6715   -1.1168 H   0  0  0  0  0  0  0  0  0  0  0  0
    3.6768   -1.0278    0.4664 H   0  0  0  0  0  0  0  0  0  0  0  0
    1.6697   -2.4309    0.0770 H   0  0  0  0  0  0  0  0  0  0  0  0
    1.4169   -1.3197    1.4444 H   0  0  0  0  0  0  0  0  0  0  0  0
    0.4729   -0.8591   -1.4216 H   0  0  0  0  0  0  0  0  0  0  0  0
   -0.8030   -2.6184   -0.2277 H   0  0  0  0  0  0  0  0  0  0  0  0
   -1.0558   -1.5073    1.1397 H   0  0  0  0  0  0  0  0  0  0  0  0
   -3.0303   -1.5365   -0.3601 H   0  0  0  0  0  0  0  0  0  0  0  0
   -1.9998   -1.0466   -1.7263 H   0  0  0  0  0  0  0  0  0  0  0  0
  1  2  1  0  0  0  0
  2  3  1  0  0  0  0
  3  4  1  0  0  0  0
  4  5  1  0  0  0  0
  5  6  1  0  0  0  0
  6  7  1  0  0  0  0
  7  8  1  0  0  0  0
  8  9  1  0  0  0  0
  4  9  1  0  0  0  0
  9 10  1  0  0  0  0
 10 11  1  0  0  0  0
  2 11  1  0  0  0  0
  1 12  1  0  0  0  0
  1 13  1  0  0  0  0
  1 14  1  0  0  0  0
  2 15  1  0  0  0  0
  3 16  1  0  0  0  0
  3 17  1  0  0  0  0
  4 18  1  0  0  0  0
  5 19  1  0  0  0  0
  5 20  1  0  0  0  0
  6 21  1  0  0  0  0
  6 22  1  0  0  0  0
  7 23  1  0  0  0  0
  7 24  1  0  0  0  0
  8 25  1  0  0  0  0
  8 26  1  0  0  0  0
  9 27  1  0  0  0  0
 10 28  1  0  0  0  0
 10 29  1  0  0  0  0
 11 30  1  0  0  0  0
 11 31  1  0  0  0  0
M  END
$$$$
