C7H7ClO
APtclcactv12151716163D 0   0.00000     0.00000
 
 16 16  0  0  0  0  0  0  0  0999 V2000
    2.7030    1.2323    0.0181 C   0  0  0  0  0  0  0  0  0  0  0  0
    1.5953    0.2105    0.0089 C   0  0  0  0  0  0  0  0  0  0  0  0
    0.2713    0.6226    0.0124 C   0  0  0  0  0  0  0  0  0  0  0  0
   -0.7470   -0.3213    0.0034 C   0  0  0  0  0  0  0  0  0  0  0  0
   -0.4383   -1.6685   -0.0089 C   0  0  0  0  0  0  0  0  0  0  0  0
    0.8832   -2.0759   -0.0123 C   0  0  0  0  0  0  0  0  0  0  0  0
    1.8984   -1.1377   -0.0087 C   0  0  0  0  0  0  0  0  0  0  0  0
   -2.4060    0.1900    0.0083 Cl  0  0  0  0  0  0  0  0  0  0  0  0
   -0.0292    1.9482    0.0250 O   0  0  0  0  0  0  0  0  0  0  0  0
    2.9699    1.4695    1.0479 H   0  0  0  0  0  0  0  0  0  0  0  0
    3.5736    0.8290   -0.4992 H   0  0  0  0  0  0  0  0  0  0  0  0
    2.3667    2.1373   -0.4878 H   0  0  0  0  0  0  0  0  0  0  0  0
   -1.2297   -2.4035   -0.0155 H   0  0  0  0  0  0  0  0  0  0  0  0
    1.1226   -3.1290   -0.0216 H   0  0  0  0  0  0  0  0  0  0  0  0
    2.9295   -1.4587   -0.0117 H   0  0  0  0  0  0  0  0  0  0  0  0
   -0.1158    2.3402   -0.8547 H   0  0  0  0  0  0  0  0  0  0  0  0
  1  2  1  0  0  0  0
  2  3  2  0  0  0  0
  3  4  1  0  0  0  0
  4  5  2  0  0  0  0
  5  6  1  0  0  0  0
  6  7  2  0  0  0  0
  2  7  1  0  0  0  0
  4  8  1  0  0  0  0
  3  9  1  0  0  0  0
  1 10  1  0  0  0  0
  1 11  1  0  0  0  0
  1 12  1  0  0  0  0
  5 13  1  0  0  0  0
  6 14  1  0  0  0  0
  7 15  1  0  0  0  0
  9 16  1  0  0  0  0
M  END
$$$$
