C6H14O
APtclcactv12211717003D 0   0.00000     0.00000
 
 21 20  0  0  0  0  0  0  0  0999 V2000
   -1.4329    1.6122   -0.0544 C   0  0  0  0  0  0  0  0  0  0  0  0
   -1.1365    0.1610    0.3292 C   0  0  0  0  0  0  0  0  0  0  0  0
   -2.2181   -0.7513   -0.2527 C   0  0  0  0  0  0  0  0  0  0  0  0
    0.2285   -0.2456   -0.2295 C   0  0  0  0  0  0  0  0  0  0  0  0
    1.3101    0.6668    0.3524 C   0  0  0  0  0  0  0  0  0  0  0  0
    2.6558    0.3426   -0.2994 C   0  0  0  0  0  0  0  0  0  0  0  0
    0.5053   -1.6010    0.1288 O   0  0  0  0  0  0  0  0  0  0  0  0
   -0.6623    2.2622    0.3602 H   0  0  0  0  0  0  0  0  0  0  0  0
   -1.4420    1.7064   -1.1402 H   0  0  0  0  0  0  0  0  0  0  0  0
   -2.4054    1.9019    0.3437 H   0  0  0  0  0  0  0  0  0  0  0  0
   -1.1274    0.0669    1.4151 H   0  0  0  0  0  0  0  0  0  0  0  0
   -2.2273   -0.6572   -1.3386 H   0  0  0  0  0  0  0  0  0  0  0  0
   -2.0070   -1.7852    0.0206 H   0  0  0  0  0  0  0  0  0  0  0  0
   -3.1906   -0.4617    0.1454 H   0  0  0  0  0  0  0  0  0  0  0  0
    0.2194   -0.1514   -1.3154 H   0  0  0  0  0  0  0  0  0  0  0  0
    1.0523    1.7074    0.1554 H   0  0  0  0  0  0  0  0  0  0  0  0
    1.3798    0.5072    1.4284 H   0  0  0  0  0  0  0  0  0  0  0  0
    2.9136   -0.6980   -0.1024 H   0  0  0  0  0  0  0  0  0  0  0  0
    2.5861    0.5022   -1.3754 H   0  0  0  0  0  0  0  0  0  0  0  0
    3.4263    0.9926    0.1151 H   0  0  0  0  0  0  0  0  0  0  0  0
    0.5289   -1.7587    1.0825 H   0  0  0  0  0  0  0  0  0  0  0  0
  1  2  1  0  0  0  0
  2  3  1  0  0  0  0
  2  4  1  0  0  0  0
  4  5  1  0  0  0  0
  5  6  1  0  0  0  0
  4  7  1  0  0  0  0
  1  8  1  0  0  0  0
  1  9  1  0  0  0  0
  1 10  1  0  0  0  0
  2 11  1  0  0  0  0
  3 12  1  0  0  0  0
  3 13  1  0  0  0  0
  3 14  1  0  0  0  0
  4 15  1  0  0  0  0
  5 16  1  0  0  0  0
  5 17  1  0  0  0  0
  6 18  1  0  0  0  0
  6 19  1  0  0  0  0
  6 20  1  0  0  0  0
  7 21  1  0  0  0  0
M  END
$$$$
