C10H9NO3S
APtclcactv12211717213D 0   0.00000     0.00000
 
 24 25  0  0  0  0  0  0  0  0999 V2000
   -1.1330    1.9323    0.0174 C   0  0  0  0  0  0  0  0  0  0  0  0
    0.7501   -1.2336    0.0428 C   0  0  0  0  0  0  0  0  0  0  0  0
   -0.0947    2.8607   -0.0189 C   0  0  0  0  0  0  0  0  0  0  0  0
    2.8378    0.6332   -0.0312 C   0  0  0  0  0  0  0  0  0  0  0  0
    1.2053    2.4574   -0.0354 C   0  0  0  0  0  0  0  0  0  0  0  0
    2.0449   -1.6460    0.0266 C   0  0  0  0  0  0  0  0  0  0  0  0
    5.1462   -0.5355   -0.0528 H   0  0  0  0  0  0  0  0  0  0  0  0
    4.6018   -2.1244   -0.0123 H   0  0  0  0  0  0  0  0  0  0  0  0
   -0.8776    0.5952    0.0380 C   0  0  0  0  0  0  0  0  0  0  0  0
    3.0947   -0.7198   -0.0104 C   0  0  0  0  0  0  0  0  0  0  0  0
   -1.7354   -1.6872    0.8077 O   0  0  0  0  0  0  0  0  0  0  0  0
   -3.3646    0.1760    0.4589 O   0  0  0  0  0  0  0  0  0  0  0  0
   -2.4433   -1.0324   -1.3434 O   0  0  0  0  0  0  0  0  0  0  0  0
   -3.1600   -1.6756   -1.4314 H   0  0  0  0  0  0  0  0  0  0  0  0
    4.4153   -1.1726   -0.0269 N   0  0  0  0  0  0  0  0  0  0  0  0
   -2.2078   -0.5593    0.0839 S   0  0  0  0  0  0  0  0  0  0  0  0
    0.4515    0.1403    0.0224 C   0  0  0  0  0  0  0  0  0  0  0  0
    1.5081    1.0850   -0.0151 C   0  0  0  0  0  0  0  0  0  0  0  0
   -2.1558    2.2787    0.0341 H   0  0  0  0  0  0  0  0  0  0  0  0
   -0.0485   -1.9601    0.0710 H   0  0  0  0  0  0  0  0  0  0  0  0
   -0.3247    3.9158   -0.0346 H   0  0  0  0  0  0  0  0  0  0  0  0
    3.6527    1.3414   -0.0594 H   0  0  0  0  0  0  0  0  0  0  0  0
    2.0000    3.1882   -0.0643 H   0  0  0  0  0  0  0  0  0  0  0  0
    2.2674   -2.7027    0.0427 H   0  0  0  0  0  0  0  0  0  0  0  0
  9 17  2  0  0  0  0
  9 16  1  0  0  0  0
  1  9  1  0  0  0  0
 17 18  1  0  0  0  0
  2 17  1  0  0  0  0
 13 16  1  0  0  0  0
 11 16  2  0  0  0  0
 12 16  2  0  0  0  0
  1  3  2  0  0  0  0
  4 18  1  0  0  0  0
  5 18  2  0  0  0  0
  2  6  2  0  0  0  0
  4 10  2  0  0  0  0
 10 15  1  0  0  0  0
  3  5  1  0  0  0  0
  6 10  1  0  0  0  0
  1 19  1  0  0  0  0
  2 20  1  0  0  0  0
 13 14  1  0  0  0  0
  3 21  1  0  0  0  0
  4 22  1  0  0  0  0
  5 23  1  0  0  0  0
  6 24  1  0  0  0  0
  7 15  1  0  0  0  0
  8 15  1  0  0  0  0
M  END
$$$$
