C11H8O2
APtclcactv12211717313D 0   0.00000     0.00000
 
 21 22  0  0  0  0  0  0  0  0999 V2000
   -0.4005   -0.9232    0.0002 C   0  0  0  0  0  0  0  0  0  0  0  0
   -1.3667    0.0697    0.0003 C   0  0  0  0  0  0  0  0  0  0  0  0
   -0.9959    1.4270    0.0003 C   0  0  0  0  0  0  0  0  0  0  0  0
    0.3113    1.7911    0.0003 C   0  0  0  0  0  0  0  0  0  0  0  0
    1.3166    0.8064    0.0002 C   0  0  0  0  0  0  0  0  0  0  0  0
    2.6760    1.1594   -0.0004 C   0  0  0  0  0  0  0  0  0  0  0  0
    3.6267    0.1844   -0.0004 C   0  0  0  0  0  0  0  0  0  0  0  0
    3.2729   -1.1632   -0.0003 C   0  0  0  0  0  0  0  0  0  0  0  0
    1.9660   -1.5439    0.0003 C   0  0  0  0  0  0  0  0  0  0  0  0
    0.9560   -0.5653    0.0007 C   0  0  0  0  0  0  0  0  0  0  0  0
   -2.7964   -0.2993   -0.0002 C   0  0  0  0  0  0  0  0  0  0  0  0
   -3.1216   -1.4698   -0.0006 O   0  0  0  0  0  0  0  0  0  0  0  0
   -3.7402    0.6621   -0.0001 O   0  0  0  0  0  0  0  0  0  0  0  0
   -0.6891   -1.9639    0.0043 H   0  0  0  0  0  0  0  0  0  0  0  0
   -1.7615    2.1887    0.0000 H   0  0  0  0  0  0  0  0  0  0  0  0
    0.5802    2.8371   -0.0001 H   0  0  0  0  0  0  0  0  0  0  0  0
    2.9661    2.1997   -0.0013 H   0  0  0  0  0  0  0  0  0  0  0  0
    4.6709    0.4600   -0.0009 H   0  0  0  0  0  0  0  0  0  0  0  0
    4.0467   -1.9166   -0.0010 H   0  0  0  0  0  0  0  0  0  0  0  0
    1.7060   -2.5921    0.0007 H   0  0  0  0  0  0  0  0  0  0  0  0
   -4.6626    0.3718   -0.0005 H   0  0  0  0  0  0  0  0  0  0  0  0
  1  2  2  0  0  0  0
  2  3  1  0  0  0  0
  3  4  2  0  0  0  0
  4  5  1  0  0  0  0
  5  6  2  0  0  0  0
  6  7  1  0  0  0  0
  7  8  2  0  0  0  0
  8  9  1  0  0  0  0
  9 10  2  0  0  0  0
  1 10  1  0  0  0  0
  5 10  1  0  0  0  0
  2 11  1  0  0  0  0
 11 12  2  0  0  0  0
 11 13  1  0  0  0  0
  1 14  1  0  0  0  0
  3 15  1  0  0  0  0
  4 16  1  0  0  0  0
  6 17  1  0  0  0  0
  7 18  1  0  0  0  0
  8 19  1  0  0  0  0
  9 20  1  0  0  0  0
 13 21  1  0  0  0  0
M  END
$$$$
