C6H6N2O4S
APtclcactv12211716533D 0   0.00000     0.00000
 
 19 19  0  0  0  0  0  0  0  0999 V2000
   -0.3727   -1.8070    0.0425 N   0  3  0  0  0  0  0  0  0  0  0  0
   -0.8738   -2.7427   -0.5550 O   0  0  0  0  0  0  0  0  0  0  0  0
    0.6813   -1.9566    0.6342 O   0  5  0  0  0  0  0  0  0  0  0  0
   -1.0417   -0.4866    0.0443 C   0  0  0  0  0  0  0  0  0  0  0  0
   -0.2891    0.6694   -0.0422 C   0  0  0  0  0  0  0  0  0  0  0  0
   -0.9139    1.9027   -0.0404 C   0  0  0  0  0  0  0  0  0  0  0  0
   -2.2911    1.9796    0.0475 C   0  0  0  0  0  0  0  0  0  0  0  0
   -3.0440    0.8231    0.1331 C   0  0  0  0  0  0  0  0  0  0  0  0
   -2.4196   -0.4099    0.1269 C   0  0  0  0  0  0  0  0  0  0  0  0
    1.4666    0.5715   -0.1541 S   0  0  0  0  0  0  0  0  0  0  0  0
    1.7516   -0.4130   -1.1385 O   0  0  0  0  0  0  0  0  0  0  0  0
    1.9389    1.9093   -0.2334 O   0  0  0  0  0  0  0  0  0  0  0  0
    2.0166   -0.0341    1.2857 N   0  0  0  0  0  0  0  0  0  0  0  0
   -0.3259    2.8061   -0.1072 H   0  0  0  0  0  0  0  0  0  0  0  0
   -2.7792    2.9430    0.0496 H   0  0  0  0  0  0  0  0  0  0  0  0
   -4.1201    0.8832    0.2021 H   0  0  0  0  0  0  0  0  0  0  0  0
   -3.0077   -1.3133    0.1938 H   0  0  0  0  0  0  0  0  0  0  0  0
    2.8302   -0.5616    1.3109 H   0  0  0  0  0  0  0  0  0  0  0  0
    1.5251    0.1387    2.1039 H   0  0  0  0  0  0  0  0  0  0  0  0
  1  2  2  0  0  0  0
  1  3  1  0  0  0  0
  1  4  1  0  0  0  0
  4  5  2  0  0  0  0
  5  6  1  0  0  0  0
  6  7  2  0  0  0  0
  7  8  1  0  0  0  0
  8  9  2  0  0  0  0
  4  9  1  0  0  0  0
  5 10  1  0  0  0  0
 10 11  2  0  0  0  0
 10 12  2  0  0  0  0
 10 13  1  0  0  0  0
  6 14  1  0  0  0  0
  7 15  1  0  0  0  0
  8 16  1  0  0  0  0
  9 17  1  0  0  0  0
 13 18  1  0  0  0  0
 13 19  1  0  0  0  0
M  CHG  2   1   1   3  -1
M  END
$$$$
