C11H22O3
APtclcactv12111704493D 0   0.00000     0.00000
 
 36 36  0  0  0  0  0  0  0  0999 V2000
    0.2691   -0.6488   -0.1393 C   0  0  0  0  0  0  0  0  0  0  0  0
    1.5463    0.1881   -0.2352 C   0  0  0  0  0  0  0  0  0  0  0  0
   -4.2500   -0.4017    0.8424 C   0  0  0  0  0  0  0  0  0  0  0  0
    2.7541   -0.6825    0.1172 C   0  0  0  0  0  0  0  0  0  0  0  0
    4.0313    0.1545    0.0213 C   0  0  0  0  0  0  0  0  0  0  0  0
    5.2392   -0.7161    0.3736 C   0  0  0  0  0  0  0  0  0  0  0  0
   -0.7815    0.7621   -1.9143 C   0  0  0  0  0  0  0  0  0  0  0  0
    6.5164    0.1208    0.2777 C   0  0  0  0  0  0  0  0  0  0  0  0
   -5.6973   -1.7149    0.3112 H   0  0  0  0  0  0  0  0  0  0  0  0
   -2.3104    1.2157    1.0876 C   0  0  0  0  0  0  0  0  0  0  0  0
   -4.9774   -1.2069   -0.0874 O   0  0  0  0  0  0  0  0  0  0  0  0
   -3.1418    0.3532    0.1054 C   0  0  0  0  0  0  0  0  0  0  0  0
   -2.1410   -0.5614   -0.4026 O   0  0  0  0  0  0  0  0  0  0  0  0
   -1.0303    1.3149    0.4315 O   0  0  0  0  0  0  0  0  0  0  0  0
   -0.9388    0.2217   -0.4916 C   0  0  0  0  0  0  0  0  0  0  0  0
    0.3296   -1.4852   -0.8356 H   0  0  0  0  0  0  0  0  0  0  0  0
    0.1591   -1.0289    0.8764 H   0  0  0  0  0  0  0  0  0  0  0  0
   -1.6455    1.3766   -2.1672 H   0  0  0  0  0  0  0  0  0  0  0  0
    0.1241    1.3656   -1.9757 H   0  0  0  0  0  0  0  0  0  0  0  0
   -0.7110   -0.0710   -2.6137 H   0  0  0  0  0  0  0  0  0  0  0  0
   -3.5551    0.9644   -0.6970 H   0  0  0  0  0  0  0  0  0  0  0  0
   -2.7587    2.2018    1.2086 H   0  0  0  0  0  0  0  0  0  0  0  0
   -2.2118    0.7154    2.0510 H   0  0  0  0  0  0  0  0  0  0  0  0
    1.6562    0.5681   -1.2508 H   0  0  0  0  0  0  0  0  0  0  0  0
    1.4857    1.0245    0.4612 H   0  0  0  0  0  0  0  0  0  0  0  0
   -4.9265    0.3128    1.3113 H   0  0  0  0  0  0  0  0  0  0  0  0
   -3.8081   -1.0397    1.6076 H   0  0  0  0  0  0  0  0  0  0  0  0
    2.6442   -1.0625    1.1328 H   0  0  0  0  0  0  0  0  0  0  0  0
    2.8147   -1.5189   -0.5792 H   0  0  0  0  0  0  0  0  0  0  0  0
    4.1413    0.5345   -0.9944 H   0  0  0  0  0  0  0  0  0  0  0  0
    3.9708    0.9909    0.7176 H   0  0  0  0  0  0  0  0  0  0  0  0
    5.1292   -1.0961    1.3893 H   0  0  0  0  0  0  0  0  0  0  0  0
    5.2997   -1.5525   -0.3227 H   0  0  0  0  0  0  0  0  0  0  0  0
    7.3769   -0.4993    0.5287 H   0  0  0  0  0  0  0  0  0  0  0  0
    6.6263    0.5009   -0.7380 H   0  0  0  0  0  0  0  0  0  0  0  0
    6.4559    0.9572    0.9740 H   0  0  0  0  0  0  0  0  0  0  0  0
 13 15  1  0  0  0  0
 14 15  1  0  0  0  0
  1 15  1  0  0  0  0
  7 15  1  0  0  0  0
 12 13  1  0  0  0  0
 10 14  1  0  0  0  0
  1  2  1  0  0  0  0
 10 12  1  0  0  0  0
  3 12  1  0  0  0  0
  2  4  1  0  0  0  0
  3 11  1  0  0  0  0
  4  5  1  0  0  0  0
  5  6  1  0  0  0  0
  6  8  1  0  0  0  0
  1 16  1  0  0  0  0
  1 17  1  0  0  0  0
  7 18  1  0  0  0  0
  7 19  1  0  0  0  0
  7 20  1  0  0  0  0
 12 21  1  0  0  0  0
 10 22  1  0  0  0  0
 10 23  1  0  0  0  0
  2 24  1  0  0  0  0
  2 25  1  0  0  0  0
  3 26  1  0  0  0  0
  3 27  1  0  0  0  0
  4 28  1  0  0  0  0
  4 29  1  0  0  0  0
  9 11  1  0  0  0  0
  5 30  1  0  0  0  0
  5 31  1  0  0  0  0
  6 32  1  0  0  0  0
  6 33  1  0  0  0  0
  8 34  1  0  0  0  0
  8 35  1  0  0  0  0
  8 36  1  0  0  0  0
M  END
$$$$
