C10H9NO3
APtclcactv12151716443D 0   0.00000     0.00000
 
 23 24  0  0  0  0  0  0  0  0999 V2000
   -3.2643   -0.3820    0.2034 C   0  0  0  0  0  0  0  0  0  0  0  0
   -4.7445   -0.5761   -0.0024 C   0  0  0  0  0  0  0  0  0  0  0  0
   -2.7353   -0.7920    1.2093 O   0  0  0  0  0  0  0  0  0  0  0  0
   -2.5325    0.2415   -0.7335 O   0  0  0  0  0  0  0  0  0  0  0  0
   -1.2131    0.4286   -0.4630 C   0  0  0  0  0  0  0  0  0  0  0  0
   -0.3200   -0.6284   -0.5819 C   0  0  0  0  0  0  0  0  0  0  0  0
    1.0139   -0.4329   -0.3067 C   0  0  0  0  0  0  0  0  0  0  0  0
    2.2142   -1.3509   -0.3383 C   0  0  0  0  0  0  0  0  0  0  0  0
    3.3672   -0.4648    0.0827 C   0  0  0  0  0  0  0  0  0  0  0  0
    2.8630    0.7597    0.3100 N   0  0  0  0  0  0  0  0  0  0  0  0
    1.4844    0.8126    0.0907 C   0  0  0  0  0  0  0  0  0  0  0  0
    0.5842    1.8694    0.2091 C   0  0  0  0  0  0  0  0  0  0  0  0
   -0.7523    1.6773   -0.0724 C   0  0  0  0  0  0  0  0  0  0  0  0
    4.5282   -0.7977    0.1938 O   0  0  0  0  0  0  0  0  0  0  0  0
   -5.1646   -1.1020    0.8549 H   0  0  0  0  0  0  0  0  0  0  0  0
   -5.2276    0.3956   -0.1050 H   0  0  0  0  0  0  0  0  0  0  0  0
   -4.9119   -1.1623   -0.9060 H   0  0  0  0  0  0  0  0  0  0  0  0
   -0.6720   -1.6020   -0.8895 H   0  0  0  0  0  0  0  0  0  0  0  0
    2.0859   -2.1715    0.3675 H   0  0  0  0  0  0  0  0  0  0  0  0
    2.3753   -1.7342   -1.3458 H   0  0  0  0  0  0  0  0  0  0  0  0
    3.3950    1.5195    0.5938 H   0  0  0  0  0  0  0  0  0  0  0  0
    0.9350    2.8434    0.5170 H   0  0  0  0  0  0  0  0  0  0  0  0
   -1.4450    2.5007    0.0209 H   0  0  0  0  0  0  0  0  0  0  0  0
  1  2  1  0  0  0  0
  1  3  2  0  0  0  0
  1  4  1  0  0  0  0
  4  5  1  0  0  0  0
  5  6  1  0  0  0  0
  6  7  2  0  0  0  0
  7  8  1  0  0  0  0
  8  9  1  0  0  0  0
  9 10  1  0  0  0  0
 10 11  1  0  0  0  0
  7 11  1  0  0  0  0
 11 12  2  0  0  0  0
 12 13  1  0  0  0  0
  5 13  2  0  0  0  0
  9 14  2  0  0  0  0
  2 15  1  0  0  0  0
  2 16  1  0  0  0  0
  2 17  1  0  0  0  0
  6 18  1  0  0  0  0
  8 19  1  0  0  0  0
  8 20  1  0  0  0  0
 10 21  1  0  0  0  0
 12 22  1  0  0  0  0
 13 23  1  0  0  0  0
M  END
$$$$
