C13H16N4O2S
APtclcactv12071713273D 0   0.00000     0.00000
 
 36 37  0  0  0  0  0  0  0  0999 V2000
   -4.1356    2.9213   -0.7666 N   0  0  0  0  0  0  0  0  0  0  0  0
   -3.3849    1.7789   -0.4797 C   0  0  0  0  0  0  0  0  0  0  0  0
   -3.5954    0.6090   -1.1984 C   0  0  0  0  0  0  0  0  0  0  0  0
   -2.8510   -0.5186   -0.9124 C   0  0  0  0  0  0  0  0  0  0  0  0
   -1.8970   -0.4838    0.0880 C   0  0  0  0  0  0  0  0  0  0  0  0
   -1.6849    0.6792    0.8054 C   0  0  0  0  0  0  0  0  0  0  0  0
   -2.4221    1.8119    0.5211 C   0  0  0  0  0  0  0  0  0  0  0  0
   -0.9499   -1.9249    0.4500 S   0  0  0  0  0  0  0  0  0  0  0  0
   -0.5010   -1.7838    1.7908 O   0  0  0  0  0  0  0  0  0  0  0  0
   -1.7173   -3.0329   -0.0002 O   0  0  0  0  0  0  0  0  0  0  0  0
    0.4030   -1.8747   -0.5037 N   0  0  0  0  0  0  0  0  0  0  0  0
    1.3401   -0.8723   -0.3232 C   0  0  0  0  0  0  0  0  0  0  0  0
    2.5405   -1.0035   -0.8684 N   0  0  0  0  0  0  0  0  0  0  0  0
    3.4591   -0.0640   -0.7151 C   0  0  0  0  0  0  0  0  0  0  0  0
    3.1528    1.0665    0.0259 C   0  0  0  0  0  0  0  0  0  0  0  0
    1.8876    1.1715    0.5822 C   0  0  0  0  0  0  0  0  0  0  0  0
    1.0137    0.1981    0.3861 N   0  0  0  0  0  0  0  0  0  0  0  0
    1.5104    2.3825    1.3960 C   0  0  0  0  0  0  0  0  0  0  0  0
    4.1733    2.1577    0.2228 C   0  0  0  0  0  0  0  0  0  0  0  0
    4.8222   -0.2213   -1.3382 C   0  0  0  0  0  0  0  0  0  0  0  0
   -4.8049    2.8982   -1.4684 H   0  0  0  0  0  0  0  0  0  0  0  0
   -3.9905    3.7365   -0.2614 H   0  0  0  0  0  0  0  0  0  0  0  0
   -4.3405    0.5810   -1.9797 H   0  0  0  0  0  0  0  0  0  0  0  0
   -3.0143   -1.4287   -1.4706 H   0  0  0  0  0  0  0  0  0  0  0  0
   -0.9390    0.7030    1.5862 H   0  0  0  0  0  0  0  0  0  0  0  0
   -2.2557    2.7200    1.0815 H   0  0  0  0  0  0  0  0  0  0  0  0
    0.5386   -2.5478   -1.1889 H   0  0  0  0  0  0  0  0  0  0  0  0
    1.0839    3.1421    0.7408 H   0  0  0  0  0  0  0  0  0  0  0  0
    0.7762    2.0992    2.1501 H   0  0  0  0  0  0  0  0  0  0  0  0
    2.3985    2.7822    1.8856 H   0  0  0  0  0  0  0  0  0  0  0  0
    4.0841    2.8882   -0.5813 H   0  0  0  0  0  0  0  0  0  0  0  0
    4.0001    2.6487    1.1805 H   0  0  0  0  0  0  0  0  0  0  0  0
    5.1740    1.7257    0.2117 H   0  0  0  0  0  0  0  0  0  0  0  0
    4.8154    0.2077   -2.3402 H   0  0  0  0  0  0  0  0  0  0  0  0
    5.5627    0.2946   -0.7271 H   0  0  0  0  0  0  0  0  0  0  0  0
    5.0743   -1.2801   -1.3980 H   0  0  0  0  0  0  0  0  0  0  0  0
  1  2  1  0  0  0  0
  2  3  2  0  0  0  0
  3  4  1  0  0  0  0
  4  5  2  0  0  0  0
  5  6  1  0  0  0  0
  6  7  2  0  0  0  0
  2  7  1  0  0  0  0
  5  8  1  0  0  0  0
  8  9  2  0  0  0  0
  8 10  2  0  0  0  0
  8 11  1  0  0  0  0
 11 12  1  0  0  0  0
 12 13  2  0  0  0  0
 13 14  1  0  0  0  0
 14 15  2  0  0  0  0
 15 16  1  0  0  0  0
 16 17  2  0  0  0  0
 12 17  1  0  0  0  0
 16 18  1  0  0  0  0
 15 19  1  0  0  0  0
 14 20  1  0  0  0  0
  1 21  1  0  0  0  0
  1 22  1  0  0  0  0
  3 23  1  0  0  0  0
  4 24  1  0  0  0  0
  6 25  1  0  0  0  0
  7 26  1  0  0  0  0
 11 27  1  0  0  0  0
 18 28  1  0  0  0  0
 18 29  1  0  0  0  0
 18 30  1  0  0  0  0
 19 31  1  0  0  0  0
 19 32  1  0  0  0  0
 19 33  1  0  0  0  0
 20 34  1  0  0  0  0
 20 35  1  0  0  0  0
 20 36  1  0  0  0  0
M  END
$$$$
