C5H10
APtclcactv12211716443D 0   0.00000     0.00000
 
 15 14  0  0  0  0  0  0  0  0999 V2000
    2.4598   -0.2967   -0.0382 C   0  0  0  0  0  0  0  0  0  0  0  0
    1.1194    0.3564   -0.2575 C   0  0  0  0  0  0  0  0  0  0  0  0
    0.0663   -0.0761    0.3905 C   0  0  0  0  0  0  0  0  0  0  0  0
   -1.2741    0.5770    0.1713 C   0  0  0  0  0  0  0  0  0  0  0  0
   -2.2978   -0.4843   -0.2368 C   0  0  0  0  0  0  0  0  0  0  0  0
    2.7407   -0.2062    1.0111 H   0  0  0  0  0  0  0  0  0  0  0  0
    2.3988   -1.3509   -0.3085 H   0  0  0  0  0  0  0  0  0  0  0  0
    3.2092    0.1947   -0.6587 H   0  0  0  0  0  0  0  0  0  0  0  0
    1.0271    1.1809   -0.9489 H   0  0  0  0  0  0  0  0  0  0  0  0
    0.1586   -0.9006    1.0819 H   0  0  0  0  0  0  0  0  0  0  0  0
   -1.5985    1.0591    1.0934 H   0  0  0  0  0  0  0  0  0  0  0  0
   -1.1898    1.3232   -0.6187 H   0  0  0  0  0  0  0  0  0  0  0  0
   -1.9734   -0.9665   -1.1589 H   0  0  0  0  0  0  0  0  0  0  0  0
   -2.3821   -1.2306    0.5532 H   0  0  0  0  0  0  0  0  0  0  0  0
   -3.2673   -0.0120   -0.3954 H   0  0  0  0  0  0  0  0  0  0  0  0
  1  2  1  0  0  0  0
  2  3  2  0  0  0  0
  3  4  1  0  0  0  0
  4  5  1  0  0  0  0
  1  6  1  0  0  0  0
  1  7  1  0  0  0  0
  1  8  1  0  0  0  0
  2  9  1  0  0  0  0
  3 10  1  0  0  0  0
  4 11  1  0  0  0  0
  4 12  1  0  0  0  0
  5 13  1  0  0  0  0
  5 14  1  0  0  0  0
  5 15  1  0  0  0  0
M  END
$$$$
