C14H16N2O4
APtclcactv12211717023D 0   0.00000     0.00000
 
 36 37  0  0  0  0  0  0  0  0999 V2000
   -2.3156    0.8905    0.1005 C   0  0  0  0  0  0  0  0  0  0  0  0
   -3.6147    0.1891    0.0468 C   0  0  0  0  0  0  0  0  0  0  0  0
   -4.7978    0.8835    0.3068 C   0  0  0  0  0  0  0  0  0  0  0  0
   -6.0075    0.2226    0.2544 C   0  0  0  0  0  0  0  0  0  0  0  0
   -6.0500   -1.1255   -0.0544 C   0  0  0  0  0  0  0  0  0  0  0  0
   -4.8814   -1.8198   -0.3127 C   0  0  0  0  0  0  0  0  0  0  0  0
   -3.6654   -1.1698   -0.2699 C   0  0  0  0  0  0  0  0  0  0  0  0
   -2.2751    2.0739    0.3714 O   0  0  0  0  0  0  0  0  0  0  0  0
   -1.1756    0.2163   -0.1454 O   0  0  0  0  0  0  0  0  0  0  0  0
    0.0639    0.9694   -0.0751 C   0  0  0  0  0  0  0  0  0  0  0  0
    1.2242    0.0565   -0.3769 C   0  0  0  0  0  0  0  0  0  0  0  0
    1.0261   -1.1137   -0.6267 O   0  0  0  0  0  0  0  0  0  0  0  0
    2.4821    0.5404   -0.3693 N   0  0  0  0  0  0  0  0  0  0  0  0
    3.7003   -0.2354   -0.6446 C   0  0  0  0  0  0  0  0  0  0  0  0
    4.8987    0.7256   -0.4966 C   0  0  0  0  0  0  0  0  0  0  0  0
    4.3312    1.8522    0.4068 C   0  0  0  0  0  0  0  0  0  0  0  0
    2.8639    1.9366   -0.0896 C   0  0  0  0  0  0  0  0  0  0  0  0
    3.8236   -1.3646    0.3456 C   0  0  0  0  0  0  0  0  0  0  0  0
    2.9788   -1.5144    1.2029 O   0  0  0  0  0  0  0  0  0  0  0  0
    4.8726   -2.2082    0.2786 N   0  0  0  0  0  0  0  0  0  0  0  0
   -4.7659    1.9356    0.5487 H   0  0  0  0  0  0  0  0  0  0  0  0
   -6.9234    0.7585    0.4553 H   0  0  0  0  0  0  0  0  0  0  0  0
   -6.9998   -1.6382   -0.0937 H   0  0  0  0  0  0  0  0  0  0  0  0
   -4.9216   -2.8721   -0.5525 H   0  0  0  0  0  0  0  0  0  0  0  0
   -2.7540   -1.7128   -0.4721 H   0  0  0  0  0  0  0  0  0  0  0  0
    0.0391    1.7789   -0.8046 H   0  0  0  0  0  0  0  0  0  0  0  0
    0.1798    1.3857    0.9256 H   0  0  0  0  0  0  0  0  0  0  0  0
    3.6660   -0.6316   -1.6595 H   0  0  0  0  0  0  0  0  0  0  0  0
    5.7360    0.2258   -0.0097 H   0  0  0  0  0  0  0  0  0  0  0  0
    5.1967    1.1227   -1.4670 H   0  0  0  0  0  0  0  0  0  0  0  0
    4.3757    1.5694    1.4585 H   0  0  0  0  0  0  0  0  0  0  0  0
    4.8549    2.7925    0.2342 H   0  0  0  0  0  0  0  0  0  0  0  0
    2.8039    2.5405   -0.9951 H   0  0  0  0  0  0  0  0  0  0  0  0
    2.2237    2.3529    0.6881 H   0  0  0  0  0  0  0  0  0  0  0  0
    5.5482   -2.0884   -0.4070 H   0  0  0  0  0  0  0  0  0  0  0  0
    4.9519   -2.9351    0.9160 H   0  0  0  0  0  0  0  0  0  0  0  0
  1  2  1  0  0  0  0
  2  3  2  0  0  0  0
  3  4  1  0  0  0  0
  4  5  2  0  0  0  0
  5  6  1  0  0  0  0
  6  7  2  0  0  0  0
  2  7  1  0  0  0  0
  1  8  2  0  0  0  0
  1  9  1  0  0  0  0
  9 10  1  0  0  0  0
 10 11  1  0  0  0  0
 11 12  2  0  0  0  0
 11 13  1  0  0  0  0
 13 14  1  0  0  0  0
 14 15  1  0  0  0  0
 15 16  1  0  0  0  0
 16 17  1  0  0  0  0
 13 17  1  0  0  0  0
 14 18  1  0  0  0  0
 18 19  2  0  0  0  0
 18 20  1  0  0  0  0
  3 21  1  0  0  0  0
  4 22  1  0  0  0  0
  5 23  1  0  0  0  0
  6 24  1  0  0  0  0
  7 25  1  0  0  0  0
 10 26  1  0  0  0  0
 10 27  1  0  0  0  0
 14 28  1  0  0  0  0
 15 29  1  0  0  0  0
 15 30  1  0  0  0  0
 16 31  1  0  0  0  0
 16 32  1  0  0  0  0
 17 33  1  0  0  0  0
 17 34  1  0  0  0  0
 20 35  1  0  0  0  0
 20 36  1  0  0  0  0
M  END
$$$$
