C11H10BrN3O2S
APtclcactv12211717313D 0   0.00000     0.00000
 
 28 29  0  0  0  0  0  0  0  0999 V2000
   -2.3737   -1.2628   -0.6123 S   0  0  0  0  0  0  0  0  0  0  0  0
   -1.8318   -1.3326   -1.9241 O   0  0  0  0  0  0  0  0  0  0  0  0
   -2.6212    0.4472   -0.2667 C   0  0  0  0  0  0  0  0  0  0  0  0
   -3.0991    0.8434    0.9762 C   0  0  0  0  0  0  0  0  0  0  0  0
   -3.2929    2.1923    1.2445 C   0  0  0  0  0  0  0  0  0  0  0  0
   -3.0101    3.1351    0.2755 C   0  0  0  0  0  0  0  0  0  0  0  0
   -2.5347    2.7374   -0.9604 C   0  0  0  0  0  0  0  0  0  0  0  0
   -2.3352    1.3953   -1.2289 C   0  0  0  0  0  0  0  0  0  0  0  0
   -3.3845   -0.1127    1.9537 N   0  0  0  0  0  0  0  0  0  0  0  0
   -3.5701   -1.9269   -0.2293 O   0  0  0  0  0  0  0  0  0  0  0  0
   -1.1901   -1.8036    0.4119 N   0  0  0  0  0  0  0  0  0  0  0  0
    0.0947   -1.2787    0.3285 C   0  0  0  0  0  0  0  0  0  0  0  0
    0.3921   -0.4228   -0.6367 N   0  0  0  0  0  0  0  0  0  0  0  0
    1.5990    0.0988   -0.7518 C   0  0  0  0  0  0  0  0  0  0  0  0
    2.6015   -0.2331    0.1381 C   0  0  0  0  0  0  0  0  0  0  0  0
    2.3301   -1.1282    1.1657 C   0  0  0  0  0  0  0  0  0  0  0  0
    1.0544   -1.6534    1.2635 C   0  0  0  0  0  0  0  0  0  0  0  0
    4.3259    0.5221   -0.0404 Br  0  0  0  0  0  0  0  0  0  0  0  0
   -3.6646    2.5036    2.2095 H   0  0  0  0  0  0  0  0  0  0  0  0
   -3.1609    4.1841    0.4833 H   0  0  0  0  0  0  0  0  0  0  0  0
   -2.3143    3.4766   -1.7163 H   0  0  0  0  0  0  0  0  0  0  0  0
   -1.9637    1.0880   -2.1953 H   0  0  0  0  0  0  0  0  0  0  0  0
   -3.1713   -1.0458    1.7963 H   0  0  0  0  0  0  0  0  0  0  0  0
   -3.7959    0.1564    2.7898 H   0  0  0  0  0  0  0  0  0  0  0  0
   -1.3932   -2.4865    1.0701 H   0  0  0  0  0  0  0  0  0  0  0  0
    1.8053    0.7937   -1.5524 H   0  0  0  0  0  0  0  0  0  0  0  0
    3.0968   -1.4043    1.8744 H   0  0  0  0  0  0  0  0  0  0  0  0
    0.8089   -2.3517    2.0499 H   0  0  0  0  0  0  0  0  0  0  0  0
  1  2  2  0  0  0  0
  1  3  1  0  0  0  0
  3  4  1  0  0  0  0
  4  5  2  0  0  0  0
  5  6  1  0  0  0  0
  6  7  2  0  0  0  0
  7  8  1  0  0  0  0
  3  8  2  0  0  0  0
  4  9  1  0  0  0  0
  1 10  2  0  0  0  0
  1 11  1  0  0  0  0
 11 12  1  0  0  0  0
 12 13  2  0  0  0  0
 13 14  1  0  0  0  0
 14 15  2  0  0  0  0
 15 16  1  0  0  0  0
 16 17  2  0  0  0  0
 12 17  1  0  0  0  0
 15 18  1  0  0  0  0
  5 19  1  0  0  0  0
  6 20  1  0  0  0  0
  7 21  1  0  0  0  0
  8 22  1  0  0  0  0
  9 23  1  0  0  0  0
  9 24  1  0  0  0  0
 11 25  1  0  0  0  0
 14 26  1  0  0  0  0
 16 27  1  0  0  0  0
 17 28  1  0  0  0  0
M  END
$$$$
