C14H18N4O2S
APtclcactv12211717023D 0   0.00000     0.00000
 
 39 40  0  0  0  0  0  0  0  0999 V2000
    1.6707   -1.3125   -0.7876 S   0  0  0  0  0  0  0  0  0  0  0  0
    2.2458   -2.5185   -0.3037 O   0  0  0  0  0  0  0  0  0  0  0  0
    2.4844    0.0014    0.0587 C   0  0  0  0  0  0  0  0  0  0  0  0
    2.6118   -0.0356    1.4416 C   0  0  0  0  0  0  0  0  0  0  0  0
    3.2539    1.0022    2.1048 C   0  0  0  0  0  0  0  0  0  0  0  0
    3.7635    2.0672    1.3878 C   0  0  0  0  0  0  0  0  0  0  0  0
    3.6350    2.1008    0.0116 C   0  0  0  0  0  0  0  0  0  0  0  0
    3.0012    1.0663   -0.6524 C   0  0  0  0  0  0  0  0  0  0  0  0
    2.0949   -1.1138    2.1635 N   0  0  0  0  0  0  0  0  0  0  0  0
    1.6559   -0.9556   -2.1630 O   0  0  0  0  0  0  0  0  0  0  0  0
    0.0919   -1.3140   -0.2879 N   0  0  0  0  0  0  0  0  0  0  0  0
   -0.7222   -0.2291   -0.5635 C   0  0  0  0  0  0  0  0  0  0  0  0
   -0.3297    0.6623   -1.4614 N   0  0  0  0  0  0  0  0  0  0  0  0
   -1.0840    1.7106   -1.7482 C   0  0  0  0  0  0  0  0  0  0  0  0
   -2.2968    1.8693   -1.0966 C   0  0  0  0  0  0  0  0  0  0  0  0
   -2.6768    0.9179   -0.1628 C   0  0  0  0  0  0  0  0  0  0  0  0
   -1.8781   -0.1096    0.0732 N   0  0  0  0  0  0  0  0  0  0  0  0
   -3.9868    1.0497    0.5705 C   0  0  0  0  0  0  0  0  0  0  0  0
   -4.8094   -0.2260    0.3785 C   0  0  0  0  0  0  0  0  0  0  0  0
   -4.0901   -1.4015    1.0430 C   0  0  0  0  0  0  0  0  0  0  0  0
   -6.1879   -0.0448    1.0170 C   0  0  0  0  0  0  0  0  0  0  0  0
    3.3543    0.9767    3.1798 H   0  0  0  0  0  0  0  0  0  0  0  0
    4.2626    2.8747    1.9029 H   0  0  0  0  0  0  0  0  0  0  0  0
    4.0343    2.9347   -0.5466 H   0  0  0  0  0  0  0  0  0  0  0  0
    2.9025    1.0957   -1.7275 H   0  0  0  0  0  0  0  0  0  0  0  0
    1.7034   -1.8678    1.6955 H   0  0  0  0  0  0  0  0  0  0  0  0
    2.1274   -1.1086    3.1330 H   0  0  0  0  0  0  0  0  0  0  0  0
   -0.2623   -2.0751    0.1979 H   0  0  0  0  0  0  0  0  0  0  0  0
   -0.7585    2.4341   -2.4809 H   0  0  0  0  0  0  0  0  0  0  0  0
   -2.9318    2.7160   -1.3114 H   0  0  0  0  0  0  0  0  0  0  0  0
   -3.7949    1.2018    1.6327 H   0  0  0  0  0  0  0  0  0  0  0  0
   -4.5401    1.9017    0.1756 H   0  0  0  0  0  0  0  0  0  0  0  0
   -4.9258   -0.4264   -0.6866 H   0  0  0  0  0  0  0  0  0  0  0  0
   -3.1080   -1.5306    0.5881 H   0  0  0  0  0  0  0  0  0  0  0  0
   -3.9737   -1.2011    2.1081 H   0  0  0  0  0  0  0  0  0  0  0  0
   -4.6761   -2.3103    0.9062 H   0  0  0  0  0  0  0  0  0  0  0  0
   -6.7004    0.7927    0.5436 H   0  0  0  0  0  0  0  0  0  0  0  0
   -6.7740   -0.9536    0.8802 H   0  0  0  0  0  0  0  0  0  0  0  0
   -6.0716    0.1556    2.0821 H   0  0  0  0  0  0  0  0  0  0  0  0
  1  2  2  0  0  0  0
  1  3  1  0  0  0  0
  3  4  1  0  0  0  0
  4  5  2  0  0  0  0
  5  6  1  0  0  0  0
  6  7  2  0  0  0  0
  7  8  1  0  0  0  0
  3  8  2  0  0  0  0
  4  9  1  0  0  0  0
  1 10  2  0  0  0  0
  1 11  1  0  0  0  0
 11 12  1  0  0  0  0
 12 13  2  0  0  0  0
 13 14  1  0  0  0  0
 14 15  2  0  0  0  0
 15 16  1  0  0  0  0
 16 17  2  0  0  0  0
 12 17  1  0  0  0  0
 16 18  1  0  0  0  0
 18 19  1  0  0  0  0
 19 20  1  0  0  0  0
 19 21  1  0  0  0  0
  5 22  1  0  0  0  0
  6 23  1  0  0  0  0
  7 24  1  0  0  0  0
  8 25  1  0  0  0  0
  9 26  1  0  0  0  0
  9 27  1  0  0  0  0
 11 28  1  0  0  0  0
 14 29  1  0  0  0  0
 15 30  1  0  0  0  0
 18 31  1  0  0  0  0
 18 32  1  0  0  0  0
 19 33  1  0  0  0  0
 20 34  1  0  0  0  0
 20 35  1  0  0  0  0
 20 36  1  0  0  0  0
 21 37  1  0  0  0  0
 21 38  1  0  0  0  0
 21 39  1  0  0  0  0
M  END
$$$$
