C11H12N4O3S
APtclcactv12211717333D 0   0.00000     0.00000
 
 31 32  0  0  0  0  0  0  0  0999 V2000
    1.2094   -1.5165   -0.2291 S   0  0  0  0  0  0  0  0  0  0  0  0
    1.9320   -2.3851    0.6325 O   0  0  0  0  0  0  0  0  0  0  0  0
    1.9543    0.0726   -0.0724 C   0  0  0  0  0  0  0  0  0  0  0  0
    2.1875    0.6102    1.1873 C   0  0  0  0  0  0  0  0  0  0  0  0
    2.7749    1.8631    1.3063 C   0  0  0  0  0  0  0  0  0  0  0  0
    3.1251    2.5705    0.1728 C   0  0  0  0  0  0  0  0  0  0  0  0
    2.8915    2.0326   -1.0793 C   0  0  0  0  0  0  0  0  0  0  0  0
    2.3120    0.7827   -1.2014 C   0  0  0  0  0  0  0  0  0  0  0  0
    1.8318   -0.1076    2.3314 N   0  0  0  0  0  0  0  0  0  0  0  0
    1.0578   -1.7529   -1.6221 O   0  0  0  0  0  0  0  0  0  0  0  0
   -0.3203   -1.4045    0.3954 N   0  0  0  0  0  0  0  0  0  0  0  0
   -1.2528   -0.5750   -0.2025 C   0  0  0  0  0  0  0  0  0  0  0  0
   -1.0152   -0.1066   -1.4186 N   0  0  0  0  0  0  0  0  0  0  0  0
   -1.8845    0.6898   -2.0225 C   0  0  0  0  0  0  0  0  0  0  0  0
   -3.0532    1.0329   -1.3696 C   0  0  0  0  0  0  0  0  0  0  0  0
   -3.2749    0.5241   -0.0904 C   0  0  0  0  0  0  0  0  0  0  0  0
   -2.3637   -0.2732    0.4533 N   0  0  0  0  0  0  0  0  0  0  0  0
   -4.4074    0.8348    0.5858 O   0  0  0  0  0  0  0  0  0  0  0  0
   -4.5585    0.2728    1.8909 C   0  0  0  0  0  0  0  0  0  0  0  0
    2.9573    2.2840    2.2841 H   0  0  0  0  0  0  0  0  0  0  0  0
    3.5815    3.5450    0.2646 H   0  0  0  0  0  0  0  0  0  0  0  0
    3.1663    2.5878   -1.9640 H   0  0  0  0  0  0  0  0  0  0  0  0
    2.1310    0.3654   -2.1809 H   0  0  0  0  0  0  0  0  0  0  0  0
    1.4805   -1.0081    2.2494 H   0  0  0  0  0  0  0  0  0  0  0  0
    1.9359    0.2943    3.2081 H   0  0  0  0  0  0  0  0  0  0  0  0
   -0.5626   -1.9204    1.1802 H   0  0  0  0  0  0  0  0  0  0  0  0
   -1.6820    1.0672   -3.0139 H   0  0  0  0  0  0  0  0  0  0  0  0
   -3.7783    1.6808   -1.8394 H   0  0  0  0  0  0  0  0  0  0  0  0
   -4.5480   -0.8149    1.8216 H   0  0  0  0  0  0  0  0  0  0  0  0
   -3.7375    0.6043    2.5266 H   0  0  0  0  0  0  0  0  0  0  0  0
   -5.5054    0.6004    2.3202 H   0  0  0  0  0  0  0  0  0  0  0  0
  1  2  2  0  0  0  0
  1  3  1  0  0  0  0
  3  4  1  0  0  0  0
  4  5  2  0  0  0  0
  5  6  1  0  0  0  0
  6  7  2  0  0  0  0
  7  8  1  0  0  0  0
  3  8  2  0  0  0  0
  4  9  1  0  0  0  0
  1 10  2  0  0  0  0
  1 11  1  0  0  0  0
 11 12  1  0  0  0  0
 12 13  2  0  0  0  0
 13 14  1  0  0  0  0
 14 15  2  0  0  0  0
 15 16  1  0  0  0  0
 16 17  2  0  0  0  0
 12 17  1  0  0  0  0
 16 18  1  0  0  0  0
 18 19  1  0  0  0  0
  5 20  1  0  0  0  0
  6 21  1  0  0  0  0
  7 22  1  0  0  0  0
  8 23  1  0  0  0  0
  9 24  1  0  0  0  0
  9 25  1  0  0  0  0
 11 26  1  0  0  0  0
 14 27  1  0  0  0  0
 15 28  1  0  0  0  0
 19 29  1  0  0  0  0
 19 30  1  0  0  0  0
 19 31  1  0  0  0  0
M  END
$$$$
