C12H14N4O3S
APtclcactv12111704593D 0   0.00000     0.00000
 
 34 35  0  0  0  0  0  0  0  0999 V2000
    1.5809   -1.4376    0.4491 S   0  0  0  0  0  0  0  0  0  0  0  0
    2.2302   -1.8279    1.6513 O   0  0  0  0  0  0  0  0  0  0  0  0
    2.2439    0.1357    0.0136 C   0  0  0  0  0  0  0  0  0  0  0  0
    2.3098    1.1492    0.9616 C   0  0  0  0  0  0  0  0  0  0  0  0
    2.8331    2.3879    0.6141 C   0  0  0  0  0  0  0  0  0  0  0  0
    3.2861    2.6083   -0.6720 C   0  0  0  0  0  0  0  0  0  0  0  0
    3.2190    1.5975   -1.6130 C   0  0  0  0  0  0  0  0  0  0  0  0
    2.7037    0.3610   -1.2687 C   0  0  0  0  0  0  0  0  0  0  0  0
    1.8504    0.9230    2.2611 N   0  0  0  0  0  0  0  0  0  0  0  0
    1.6004   -2.2230   -0.7350 O   0  0  0  0  0  0  0  0  0  0  0  0
   -0.0139   -1.2086    0.8320 N   0  0  0  0  0  0  0  0  0  0  0  0
   -0.9007   -0.7654   -0.1337 C   0  0  0  0  0  0  0  0  0  0  0  0
   -0.5410   -0.8052   -1.4080 N   0  0  0  0  0  0  0  0  0  0  0  0
   -1.3631   -0.3896   -2.3598 C   0  0  0  0  0  0  0  0  0  0  0  0
   -2.6114    0.0909   -2.0122 C   0  0  0  0  0  0  0  0  0  0  0  0
   -2.9611    0.1203   -0.6627 C   0  0  0  0  0  0  0  0  0  0  0  0
   -2.0903   -0.3168    0.2387 N   0  0  0  0  0  0  0  0  0  0  0  0
   -4.1748    0.5835   -0.2774 O   0  0  0  0  0  0  0  0  0  0  0  0
   -4.4555    0.5804    1.1238 C   0  0  0  0  0  0  0  0  0  0  0  0
   -5.8614    1.1343    1.3636 C   0  0  0  0  0  0  0  0  0  0  0  0
    2.8854    3.1780    1.3486 H   0  0  0  0  0  0  0  0  0  0  0  0
    3.6928    3.5714   -0.9429 H   0  0  0  0  0  0  0  0  0  0  0  0
    3.5739    1.7725   -2.6179 H   0  0  0  0  0  0  0  0  0  0  0  0
    2.6528   -0.4264   -2.0062 H   0  0  0  0  0  0  0  0  0  0  0  0
    1.5442    0.0399    2.5205 H   0  0  0  0  0  0  0  0  0  0  0  0
    1.8375    1.6490    2.9042 H   0  0  0  0  0  0  0  0  0  0  0  0
   -0.3265   -1.3851    1.7331 H   0  0  0  0  0  0  0  0  0  0  0  0
   -1.0611   -0.4255   -3.3961 H   0  0  0  0  0  0  0  0  0  0  0  0
   -3.3005    0.4361   -2.7688 H   0  0  0  0  0  0  0  0  0  0  0  0
   -4.3971   -0.4396    1.5038 H   0  0  0  0  0  0  0  0  0  0  0  0
   -3.7263    1.2033    1.6418 H   0  0  0  0  0  0  0  0  0  0  0  0
   -6.0755    1.1319    2.4323 H   0  0  0  0  0  0  0  0  0  0  0  0
   -5.9197    2.1542    0.9836 H   0  0  0  0  0  0  0  0  0  0  0  0
   -6.5906    0.5113    0.8456 H   0  0  0  0  0  0  0  0  0  0  0  0
  1  2  2  0  0  0  0
  1  3  1  0  0  0  0
  3  4  1  0  0  0  0
  4  5  2  0  0  0  0
  5  6  1  0  0  0  0
  6  7  2  0  0  0  0
  7  8  1  0  0  0  0
  3  8  2  0  0  0  0
  4  9  1  0  0  0  0
  1 10  2  0  0  0  0
  1 11  1  0  0  0  0
 11 12  1  0  0  0  0
 12 13  2  0  0  0  0
 13 14  1  0  0  0  0
 14 15  2  0  0  0  0
 15 16  1  0  0  0  0
 16 17  2  0  0  0  0
 12 17  1  0  0  0  0
 16 18  1  0  0  0  0
 18 19  1  0  0  0  0
 19 20  1  0  0  0  0
  5 21  1  0  0  0  0
  6 22  1  0  0  0  0
  7 23  1  0  0  0  0
  8 24  1  0  0  0  0
  9 25  1  0  0  0  0
  9 26  1  0  0  0  0
 11 27  1  0  0  0  0
 14 28  1  0  0  0  0
 15 29  1  0  0  0  0
 19 30  1  0  0  0  0
 19 31  1  0  0  0  0
 20 32  1  0  0  0  0
 20 33  1  0  0  0  0
 20 34  1  0  0  0  0
M  END
$$$$
