C15H20N4O2S
APtclcactv12211717083D 0   0.00000     0.00000
 
 42 43  0  0  0  0  0  0  0  0999 V2000
    2.1417   -1.2459   -0.9360 S   0  0  0  0  0  0  0  0  0  0  0  0
    2.6148   -2.5493   -0.6253 O   0  0  0  0  0  0  0  0  0  0  0  0
    2.9729   -0.1413    0.1566 C   0  0  0  0  0  0  0  0  0  0  0  0
    3.0088   -0.4073    1.5197 C   0  0  0  0  0  0  0  0  0  0  0  0
    3.6651    0.4661    2.3774 C   0  0  0  0  0  0  0  0  0  0  0  0
    4.2797    1.5955    1.8730 C   0  0  0  0  0  0  0  0  0  0  0  0
    4.2421    1.8572    0.5159 C   0  0  0  0  0  0  0  0  0  0  0  0
    3.5943    0.9866   -0.3418 C   0  0  0  0  0  0  0  0  0  0  0  0
    2.3859   -1.5501    2.0265 N   0  0  0  0  0  0  0  0  0  0  0  0
    2.2358   -0.6736   -2.2332 O   0  0  0  0  0  0  0  0  0  0  0  0
    0.5365   -1.2218   -0.5296 N   0  0  0  0  0  0  0  0  0  0  0  0
   -0.1949   -0.0550   -0.6678 C   0  0  0  0  0  0  0  0  0  0  0  0
    0.3047    0.9403   -1.3854 N   0  0  0  0  0  0  0  0  0  0  0  0
   -0.3685    2.0689   -1.5373 C   0  0  0  0  0  0  0  0  0  0  0  0
   -1.6096    2.2020   -0.9353 C   0  0  0  0  0  0  0  0  0  0  0  0
   -2.1027    1.1411   -0.1916 C   0  0  0  0  0  0  0  0  0  0  0  0
   -1.3807    0.0381   -0.0838 N   0  0  0  0  0  0  0  0  0  0  0  0
   -3.4474    1.2411    0.4813 C   0  0  0  0  0  0  0  0  0  0  0  0
   -4.3274    0.0703    0.0389 C   0  0  0  0  0  0  0  0  0  0  0  0
   -5.6926    0.1719    0.7220 C   0  0  0  0  0  0  0  0  0  0  0  0
   -6.5726   -0.9989    0.2797 C   0  0  0  0  0  0  0  0  0  0  0  0
   -7.9379   -0.8973    0.9628 C   0  0  0  0  0  0  0  0  0  0  0  0
    3.6945    0.2624    3.4377 H   0  0  0  0  0  0  0  0  0  0  0  0
    4.7899    2.2752    2.5394 H   0  0  0  0  0  0  0  0  0  0  0  0
    4.7234    2.7410    0.1240 H   0  0  0  0  0  0  0  0  0  0  0  0
    3.5668    1.1939   -1.4013 H   0  0  0  0  0  0  0  0  0  0  0  0
    1.9829   -2.1918    1.4209 H   0  0  0  0  0  0  0  0  0  0  0  0
    2.3562   -1.7020    2.9841 H   0  0  0  0  0  0  0  0  0  0  0  0
    0.1089   -2.0255   -0.1947 H   0  0  0  0  0  0  0  0  0  0  0  0
    0.0442    2.8769   -2.1232 H   0  0  0  0  0  0  0  0  0  0  0  0
   -2.1802    3.1126   -1.0429 H   0  0  0  0  0  0  0  0  0  0  0  0
   -3.3158    1.2084    1.5628 H   0  0  0  0  0  0  0  0  0  0  0  0
   -3.9246    2.1803    0.2015 H   0  0  0  0  0  0  0  0  0  0  0  0
   -4.4589    0.1030   -1.0426 H   0  0  0  0  0  0  0  0  0  0  0  0
   -3.8501   -0.8689    0.3187 H   0  0  0  0  0  0  0  0  0  0  0  0
   -5.5611    0.1392    1.8036 H   0  0  0  0  0  0  0  0  0  0  0  0
   -6.1699    1.1111    0.4423 H   0  0  0  0  0  0  0  0  0  0  0  0
   -6.7042   -0.9662   -0.8018 H   0  0  0  0  0  0  0  0  0  0  0  0
   -6.0954   -1.9381    0.5594 H   0  0  0  0  0  0  0  0  0  0  0  0
   -8.4152    0.0419    0.6831 H   0  0  0  0  0  0  0  0  0  0  0  0
   -8.5648   -1.7314    0.6477 H   0  0  0  0  0  0  0  0  0  0  0  0
   -7.8064   -0.9300    2.0444 H   0  0  0  0  0  0  0  0  0  0  0  0
  1  2  2  0  0  0  0
  1  3  1  0  0  0  0
  3  4  1  0  0  0  0
  4  5  2  0  0  0  0
  5  6  1  0  0  0  0
  6  7  2  0  0  0  0
  7  8  1  0  0  0  0
  3  8  2  0  0  0  0
  4  9  1  0  0  0  0
  1 10  2  0  0  0  0
  1 11  1  0  0  0  0
 11 12  1  0  0  0  0
 12 13  2  0  0  0  0
 13 14  1  0  0  0  0
 14 15  2  0  0  0  0
 15 16  1  0  0  0  0
 16 17  2  0  0  0  0
 12 17  1  0  0  0  0
 16 18  1  0  0  0  0
 18 19  1  0  0  0  0
 19 20  1  0  0  0  0
 20 21  1  0  0  0  0
 21 22  1  0  0  0  0
  5 23  1  0  0  0  0
  6 24  1  0  0  0  0
  7 25  1  0  0  0  0
  8 26  1  0  0  0  0
  9 27  1  0  0  0  0
  9 28  1  0  0  0  0
 11 29  1  0  0  0  0
 14 30  1  0  0  0  0
 15 31  1  0  0  0  0
 18 32  1  0  0  0  0
 18 33  1  0  0  0  0
 19 34  1  0  0  0  0
 19 35  1  0  0  0  0
 20 36  1  0  0  0  0
 20 37  1  0  0  0  0
 21 38  1  0  0  0  0
 21 39  1  0  0  0  0
 22 40  1  0  0  0  0
 22 41  1  0  0  0  0
 22 42  1  0  0  0  0
M  END
$$$$
