C11H10N4O4S
APtclcactv12211717323D 0   0.00000     0.00000
 
 30 31  0  0  0  0  0  0  0  0999 V2000
   -1.8142   -1.2777   -0.6543 S   0  0  0  0  0  0  0  0  0  0  0  0
   -1.2795   -1.2654   -1.9708 O   0  0  0  0  0  0  0  0  0  0  0  0
   -2.1510    0.4011   -0.2384 C   0  0  0  0  0  0  0  0  0  0  0  0
   -2.6399    0.7206    1.0222 C   0  0  0  0  0  0  0  0  0  0  0  0
   -2.9042    2.0452    1.3458 C   0  0  0  0  0  0  0  0  0  0  0  0
   -2.6803    3.0401    0.4141 C   0  0  0  0  0  0  0  0  0  0  0  0
   -2.1937    2.7186   -0.8395 C   0  0  0  0  0  0  0  0  0  0  0  0
   -1.9241    1.4011   -1.1631 C   0  0  0  0  0  0  0  0  0  0  0  0
   -2.8656   -0.2879    1.9617 N   0  0  0  0  0  0  0  0  0  0  0  0
   -2.9700   -2.0206   -0.2917 O   0  0  0  0  0  0  0  0  0  0  0  0
   -0.5952   -1.7940    0.3406 N   0  0  0  0  0  0  0  0  0  0  0  0
    0.6583   -1.1974    0.2713 C   0  0  0  0  0  0  0  0  0  0  0  0
    0.9018   -0.2886   -0.6602 N   0  0  0  0  0  0  0  0  0  0  0  0
    2.0779    0.3017   -0.7605 C   0  0  0  0  0  0  0  0  0  0  0  0
    3.1032   -0.0110    0.1090 C   0  0  0  0  0  0  0  0  0  0  0  0
    2.8889   -0.9594    1.1006 C   0  0  0  0  0  0  0  0  0  0  0  0
    1.6443   -1.5565    1.1849 C   0  0  0  0  0  0  0  0  0  0  0  0
    4.4180    0.6573   -0.0146 N   0  3  0  0  0  0  0  0  0  0  0  0
    4.5994    1.4879   -0.8868 O   0  0  0  0  0  0  0  0  0  0  0  0
    5.3186    0.3768    0.7559 O   0  5  0  0  0  0  0  0  0  0  0  0
   -3.2846    2.2970    2.3247 H   0  0  0  0  0  0  0  0  0  0  0  0
   -2.8859    4.0702    0.6650 H   0  0  0  0  0  0  0  0  0  0  0  0
   -2.0195    3.4984   -1.5661 H   0  0  0  0  0  0  0  0  0  0  0  0
   -1.5440    1.1534   -2.1432 H   0  0  0  0  0  0  0  0  0  0  0  0
   -2.6035   -1.2010    1.7655 H   0  0  0  0  0  0  0  0  0  0  0  0
   -3.2845   -0.0752    2.8104 H   0  0  0  0  0  0  0  0  0  0  0  0
   -0.7560   -2.5128    0.9718 H   0  0  0  0  0  0  0  0  0  0  0  0
    2.2403    1.0386   -1.5331 H   0  0  0  0  0  0  0  0  0  0  0  0
    3.6751   -1.2215    1.7932 H   0  0  0  0  0  0  0  0  0  0  0  0
    1.4432   -2.2978    1.9442 H   0  0  0  0  0  0  0  0  0  0  0  0
  1  2  2  0  0  0  0
  1  3  1  0  0  0  0
  3  4  1  0  0  0  0
  4  5  2  0  0  0  0
  5  6  1  0  0  0  0
  6  7  2  0  0  0  0
  7  8  1  0  0  0  0
  3  8  2  0  0  0  0
  4  9  1  0  0  0  0
  1 10  2  0  0  0  0
  1 11  1  0  0  0  0
 11 12  1  0  0  0  0
 12 13  2  0  0  0  0
 13 14  1  0  0  0  0
 14 15  2  0  0  0  0
 15 16  1  0  0  0  0
 16 17  2  0  0  0  0
 12 17  1  0  0  0  0
 15 18  1  0  0  0  0
 18 19  2  0  0  0  0
 18 20  1  0  0  0  0
  5 21  1  0  0  0  0
  6 22  1  0  0  0  0
  7 23  1  0  0  0  0
  8 24  1  0  0  0  0
  9 25  1  0  0  0  0
  9 26  1  0  0  0  0
 11 27  1  0  0  0  0
 14 28  1  0  0  0  0
 16 29  1  0  0  0  0
 17 30  1  0  0  0  0
M  CHG  2  18   1  20  -1
M  END
$$$$
