C11H10IN3O2S
APtclcactv12211717323D 0   0.00000     0.00000
 
 28 29  0  0  0  0  0  0  0  0999 V2000
   -3.0323   -1.2203   -0.6211 S   0  0  0  0  0  0  0  0  0  0  0  0
   -2.4877   -1.3080   -1.9306 O   0  0  0  0  0  0  0  0  0  0  0  0
   -3.2059    0.4973   -0.2684 C   0  0  0  0  0  0  0  0  0  0  0  0
   -3.6718    0.9085    0.9742 C   0  0  0  0  0  0  0  0  0  0  0  0
   -3.8071    2.2634    1.2480 C   0  0  0  0  0  0  0  0  0  0  0  0
   -3.4783    3.1973    0.2848 C   0  0  0  0  0  0  0  0  0  0  0  0
   -3.0150    2.7846   -0.9508 C   0  0  0  0  0  0  0  0  0  0  0  0
   -2.8736    1.4363   -1.2247 C   0  0  0  0  0  0  0  0  0  0  0  0
   -4.0037   -0.0385    1.9457 N   0  0  0  0  0  0  0  0  0  0  0  0
   -4.2587   -1.8327   -0.2467 O   0  0  0  0  0  0  0  0  0  0  0  0
   -1.8788   -1.8175    0.4061 N   0  0  0  0  0  0  0  0  0  0  0  0
   -0.5718   -1.3495    0.3310 C   0  0  0  0  0  0  0  0  0  0  0  0
   -0.2322   -0.5031   -0.6287 N   0  0  0  0  0  0  0  0  0  0  0  0
    0.9970   -0.0346   -0.7353 C   0  0  0  0  0  0  0  0  0  0  0  0
    1.9794   -0.4145    0.1574 C   0  0  0  0  0  0  0  0  0  0  0  0
    1.6639   -1.3012    1.1794 C   0  0  0  0  0  0  0  0  0  0  0  0
    0.3660   -1.7704    1.2687 C   0  0  0  0  0  0  0  0  0  0  0  0
    3.9258    0.3380   -0.0275 I   0  0  0  0  0  0  0  0  0  0  0  0
   -4.1693    2.5865    2.2128 H   0  0  0  0  0  0  0  0  0  0  0  0
   -3.5837    4.2510    0.4969 H   0  0  0  0  0  0  0  0  0  0  0  0
   -2.7586    3.5168   -1.7021 H   0  0  0  0  0  0  0  0  0  0  0  0
   -2.5114    1.1173   -2.1909 H   0  0  0  0  0  0  0  0  0  0  0  0
   -3.8311   -0.9793    1.7849 H   0  0  0  0  0  0  0  0  0  0  0  0
   -4.4069    0.2447    2.7813 H   0  0  0  0  0  0  0  0  0  0  0  0
   -2.1150   -2.4938    1.0601 H   0  0  0  0  0  0  0  0  0  0  0  0
    1.2376    0.6545   -1.5314 H   0  0  0  0  0  0  0  0  0  0  0  0
    2.4143   -1.6138    1.8904 H   0  0  0  0  0  0  0  0  0  0  0  0
    0.0863   -2.4608    2.0507 H   0  0  0  0  0  0  0  0  0  0  0  0
  1  2  2  0  0  0  0
  1  3  1  0  0  0  0
  3  4  1  0  0  0  0
  4  5  2  0  0  0  0
  5  6  1  0  0  0  0
  6  7  2  0  0  0  0
  7  8  1  0  0  0  0
  3  8  2  0  0  0  0
  4  9  1  0  0  0  0
  1 10  2  0  0  0  0
  1 11  1  0  0  0  0
 11 12  1  0  0  0  0
 12 13  2  0  0  0  0
 13 14  1  0  0  0  0
 14 15  2  0  0  0  0
 15 16  1  0  0  0  0
 16 17  2  0  0  0  0
 12 17  1  0  0  0  0
 15 18  1  0  0  0  0
  5 19  1  0  0  0  0
  6 20  1  0  0  0  0
  7 21  1  0  0  0  0
  8 22  1  0  0  0  0
  9 23  1  0  0  0  0
  9 24  1  0  0  0  0
 11 25  1  0  0  0  0
 14 26  1  0  0  0  0
 16 27  1  0  0  0  0
 17 28  1  0  0  0  0
M  END
$$$$
