C10H9ClN4O2S
APtclcactv12211717203D 0   0.00000     0.00000
 
 27 28  0  0  0  0  0  0  0  0999 V2000
    1.5053   -1.3492   -0.6001 S   0  0  0  0  0  0  0  0  0  0  0  0
    2.5996   -2.1711   -0.2178 O   0  0  0  0  0  0  0  0  0  0  0  0
    1.9905    0.3117   -0.2676 C   0  0  0  0  0  0  0  0  0  0  0  0
    2.5456    0.6410    0.9628 C   0  0  0  0  0  0  0  0  0  0  0  0
    2.9266    1.9514    1.2207 C   0  0  0  0  0  0  0  0  0  0  0  0
    2.7527    2.9226    0.2541 C   0  0  0  0  0  0  0  0  0  0  0  0
    2.2000    2.5915   -0.9692 C   0  0  0  0  0  0  0  0  0  0  0  0
    1.8247    1.2863   -1.2315 C   0  0  0  0  0  0  0  0  0  0  0  0
    2.7196   -0.3435    1.9382 N   0  0  0  0  0  0  0  0  0  0  0  0
    0.9518   -1.3512   -1.9089 O   0  0  0  0  0  0  0  0  0  0  0  0
    0.2636   -1.7134    0.4333 N   0  0  0  0  0  0  0  0  0  0  0  0
   -0.9466   -1.0498    0.3225 C   0  0  0  0  0  0  0  0  0  0  0  0
   -2.0137   -1.5454    0.9313 N   0  0  0  0  0  0  0  0  0  0  0  0
   -3.1849   -0.9363    0.8463 C   0  0  0  0  0  0  0  0  0  0  0  0
   -3.2866    0.2340    0.1089 C   0  0  0  0  0  0  0  0  0  0  0  0
   -2.1494    0.7246   -0.5155 C   0  0  0  0  0  0  0  0  0  0  0  0
   -1.0082    0.0683   -0.3854 N   0  0  0  0  0  0  0  0  0  0  0  0
   -4.8038    1.0661   -0.0301 Cl  0  0  0  0  0  0  0  0  0  0  0  0
    3.3581    2.2109    2.1762 H   0  0  0  0  0  0  0  0  0  0  0  0
    3.0484    3.9419    0.4542 H   0  0  0  0  0  0  0  0  0  0  0  0
    2.0651    3.3528   -1.7233 H   0  0  0  0  0  0  0  0  0  0  0  0
    1.3933    1.0310   -2.1881 H   0  0  0  0  0  0  0  0  0  0  0  0
    2.3617   -1.2340    1.7977 H   0  0  0  0  0  0  0  0  0  0  0  0
    3.1984   -0.1366    2.7560 H   0  0  0  0  0  0  0  0  0  0  0  0
    0.3840   -2.3916    1.1162 H   0  0  0  0  0  0  0  0  0  0  0  0
   -4.0513   -1.3454    1.3447 H   0  0  0  0  0  0  0  0  0  0  0  0
   -2.1941    1.6334   -1.0973 H   0  0  0  0  0  0  0  0  0  0  0  0
  1  2  2  0  0  0  0
  1  3  1  0  0  0  0
  3  4  1  0  0  0  0
  4  5  2  0  0  0  0
  5  6  1  0  0  0  0
  6  7  2  0  0  0  0
  7  8  1  0  0  0  0
  3  8  2  0  0  0  0
  4  9  1  0  0  0  0
  1 10  2  0  0  0  0
  1 11  1  0  0  0  0
 11 12  1  0  0  0  0
 12 13  2  0  0  0  0
 13 14  1  0  0  0  0
 14 15  2  0  0  0  0
 15 16  1  0  0  0  0
 16 17  2  0  0  0  0
 12 17  1  0  0  0  0
 15 18  1  0  0  0  0
  5 19  1  0  0  0  0
  6 20  1  0  0  0  0
  7 21  1  0  0  0  0
  8 22  1  0  0  0  0
  9 23  1  0  0  0  0
  9 24  1  0  0  0  0
 11 25  1  0  0  0  0
 14 26  1  0  0  0  0
 16 27  1  0  0  0  0
M  END
$$$$
