C12H6Cl4
APtclcactv12111704533D 0   0.00000     0.00000
 
 22 23  0  0  0  0  0  0  0  0999 V2000
   -3.6947   -2.5404   -0.9175 Cl  0  0  0  0  0  0  0  0  0  0  0  0
   -2.8224   -1.1287   -0.4076 C   0  0  0  0  0  0  0  0  0  0  0  0
   -1.4409   -1.1336   -0.4098 C   0  0  0  0  0  0  0  0  0  0  0  0
   -0.7420   -0.0000   -0.0004 C   0  0  0  0  0  0  0  0  0  0  0  0
   -1.4408    1.1334    0.4095 C   0  0  0  0  0  0  0  0  0  0  0  0
   -2.8222    1.1284    0.4082 C   0  0  0  0  0  0  0  0  0  0  0  0
   -3.5121    0.0017   -0.0049 C   0  0  0  0  0  0  0  0  0  0  0  0
   -3.6944    2.5399    0.9187 Cl  0  0  0  0  0  0  0  0  0  0  0  0
    0.7420   -0.0001   -0.0004 C   0  0  0  0  0  0  0  0  0  0  0  0
    1.4409    1.1334   -0.4099 C   0  0  0  0  0  0  0  0  0  0  0  0
    2.8223    1.1286   -0.4077 C   0  0  0  0  0  0  0  0  0  0  0  0
    3.5121    0.0001    0.0004 C   0  0  0  0  0  0  0  0  0  0  0  0
    2.8222   -1.1287    0.4077 C   0  0  0  0  0  0  0  0  0  0  0  0
    1.4408   -1.1317    0.4145 C   0  0  0  0  0  0  0  0  0  0  0  0
    3.6945   -2.5406    0.9171 Cl  0  0  0  0  0  0  0  0  0  0  0  0
    3.6947    2.5400   -0.9183 Cl  0  0  0  0  0  0  0  0  0  0  0  0
   -0.9036   -2.0147   -0.7281 H   0  0  0  0  0  0  0  0  0  0  0  0
   -0.9034    2.0144    0.7282 H   0  0  0  0  0  0  0  0  0  0  0  0
   -4.5921    0.0017   -0.0045 H   0  0  0  0  0  0  0  0  0  0  0  0
    0.9036    2.0143   -0.7289 H   0  0  0  0  0  0  0  0  0  0  0  0
    4.5921    0.0001    0.0007 H   0  0  0  0  0  0  0  0  0  0  0  0
    0.9034   -2.0129    0.7325 H   0  0  0  0  0  0  0  0  0  0  0  0
  1  2  1  0  0  0  0
  2  3  1  0  0  0  0
  3  4  2  0  0  0  0
  4  5  1  0  0  0  0
  5  6  2  0  0  0  0
  6  7  1  0  0  0  0
  2  7  2  0  0  0  0
  6  8  1  0  0  0  0
  4  9  1  0  0  0  0
  9 10  2  0  0  0  0
 10 11  1  0  0  0  0
 11 12  2  0  0  0  0
 12 13  1  0  0  0  0
 13 14  2  0  0  0  0
  9 14  1  0  0  0  0
 13 15  1  0  0  0  0
 11 16  1  0  0  0  0
  3 17  1  0  0  0  0
  5 18  1  0  0  0  0
  7 19  1  0  0  0  0
 10 20  1  0  0  0  0
 12 21  1  0  0  0  0
 14 22  1  0  0  0  0
M  END
$$$$
