C12H26
APtclcactv12141705303D 0   0.00000     0.00000
 
 38 37  0  0  0  0  0  0  0  0999 V2000
    2.0704   -0.9901   -1.2492 C   0  0  0  0  0  0  0  0  0  0  0  0
    1.9215   -0.1194   -0.0000 C   0  0  0  0  0  0  0  0  0  0  0  0
    3.0039    0.9619    0.0000 C   0  0  0  0  0  0  0  0  0  0  0  0
    4.3842    0.3018    0.0000 C   0  0  0  0  0  0  0  0  0  0  0  0
    0.5412    0.5407    0.0000 C   0  0  0  0  0  0  0  0  0  0  0  0
   -0.5412   -0.5407   -0.0000 C   0  0  0  0  0  0  0  0  0  0  0  0
   -1.9215    0.1194    0.0000 C   0  0  0  0  0  0  0  0  0  0  0  0
   -3.0039   -0.9619   -0.0000 C   0  0  0  0  0  0  0  0  0  0  0  0
   -4.3842   -0.3018   -0.0000 C   0  0  0  0  0  0  0  0  0  0  0  0
   -2.0704    0.9901    1.2492 C   0  0  0  0  0  0  0  0  0  0  0  0
   -2.0704    0.9901   -1.2492 C   0  0  0  0  0  0  0  0  0  0  0  0
    2.0704   -0.9901    1.2492 C   0  0  0  0  0  0  0  0  0  0  0  0
    3.0538   -1.4604   -1.2492 H   0  0  0  0  0  0  0  0  0  0  0  0
    1.2993   -1.7605   -1.2492 H   0  0  0  0  0  0  0  0  0  0  0  0
    1.9643   -0.3698   -2.1392 H   0  0  0  0  0  0  0  0  0  0  0  0
    2.8978    1.5822   -0.8900 H   0  0  0  0  0  0  0  0  0  0  0  0
    2.8978    1.5822    0.8900 H   0  0  0  0  0  0  0  0  0  0  0  0
    4.4903   -0.3185    0.8900 H   0  0  0  0  0  0  0  0  0  0  0  0
    4.4903   -0.3185   -0.8900 H   0  0  0  0  0  0  0  0  0  0  0  0
    5.1553    1.0722    0.0000 H   0  0  0  0  0  0  0  0  0  0  0  0
    0.4351    1.1610    0.8900 H   0  0  0  0  0  0  0  0  0  0  0  0
    0.4351    1.1610   -0.8900 H   0  0  0  0  0  0  0  0  0  0  0  0
   -0.4351   -1.1610   -0.8900 H   0  0  0  0  0  0  0  0  0  0  0  0
   -0.4351   -1.1610    0.8900 H   0  0  0  0  0  0  0  0  0  0  0  0
   -2.8978   -1.5822   -0.8900 H   0  0  0  0  0  0  0  0  0  0  0  0
   -2.8978   -1.5822    0.8900 H   0  0  0  0  0  0  0  0  0  0  0  0
   -4.4903    0.3185    0.8900 H   0  0  0  0  0  0  0  0  0  0  0  0
   -4.4903    0.3185   -0.8900 H   0  0  0  0  0  0  0  0  0  0  0  0
   -5.1553   -1.0722   -0.0000 H   0  0  0  0  0  0  0  0  0  0  0  0
   -1.2993    1.7605    1.2492 H   0  0  0  0  0  0  0  0  0  0  0  0
   -3.0538    1.4604    1.2492 H   0  0  0  0  0  0  0  0  0  0  0  0
   -1.9643    0.3698    2.1392 H   0  0  0  0  0  0  0  0  0  0  0  0
   -1.9643    0.3698   -2.1392 H   0  0  0  0  0  0  0  0  0  0  0  0
   -3.0538    1.4604   -1.2492 H   0  0  0  0  0  0  0  0  0  0  0  0
   -1.2993    1.7605   -1.2492 H   0  0  0  0  0  0  0  0  0  0  0  0
    3.0538   -1.4604    1.2492 H   0  0  0  0  0  0  0  0  0  0  0  0
    1.9643   -0.3698    2.1392 H   0  0  0  0  0  0  0  0  0  0  0  0
    1.2993   -1.7605    1.2492 H   0  0  0  0  0  0  0  0  0  0  0  0
  1  2  1  0  0  0  0
  2  3  1  0  0  0  0
  3  4  1  0  0  0  0
  2  5  1  0  0  0  0
  5  6  1  0  0  0  0
  6  7  1  0  0  0  0
  7  8  1  0  0  0  0
  8  9  1  0  0  0  0
  7 10  1  0  0  0  0
  7 11  1  0  0  0  0
  2 12  1  0  0  0  0
  1 13  1  0  0  0  0
  1 14  1  0  0  0  0
  1 15  1  0  0  0  0
  3 16  1  0  0  0  0
  3 17  1  0  0  0  0
  4 18  1  0  0  0  0
  4 19  1  0  0  0  0
  4 20  1  0  0  0  0
  5 21  1  0  0  0  0
  5 22  1  0  0  0  0
  6 23  1  0  0  0  0
  6 24  1  0  0  0  0
  8 25  1  0  0  0  0
  8 26  1  0  0  0  0
  9 27  1  0  0  0  0
  9 28  1  0  0  0  0
  9 29  1  0  0  0  0
 10 30  1  0  0  0  0
 10 31  1  0  0  0  0
 10 32  1  0  0  0  0
 11 33  1  0  0  0  0
 11 34  1  0  0  0  0
 11 35  1  0  0  0  0
 12 36  1  0  0  0  0
 12 37  1  0  0  0  0
 12 38  1  0  0  0  0
M  END
$$$$
