C8H10O
APtclcactv12151716323D 0   0.00000     0.00000
 
 19 19  0  0  0  0  0  0  0  0999 V2000
   -1.5638   -0.0621   -0.0177 C   0  0  0  0  0  0  0  0  0  0  0  0
   -0.6123   -1.0715   -0.0135 C   0  0  0  0  0  0  0  0  0  0  0  0
    0.7319   -0.7521   -0.0033 C   0  0  0  0  0  0  0  0  0  0  0  0
    1.1289    0.5721    0.0026 C   0  0  0  0  0  0  0  0  0  0  0  0
    0.1823    1.5802   -0.0011 C   0  0  0  0  0  0  0  0  0  0  0  0
   -1.1627    1.2661   -0.0116 C   0  0  0  0  0  0  0  0  0  0  0  0
    2.5957    0.9176    0.0137 C   0  0  0  0  0  0  0  0  0  0  0  0
    1.7661   -1.8482    0.0017 C   0  0  0  0  0  0  0  0  0  0  0  0
   -2.8865   -0.3737   -0.0333 O   0  0  0  0  0  0  0  0  0  0  0  0
   -0.9220   -2.1061   -0.0178 H   0  0  0  0  0  0  0  0  0  0  0  0
    0.4949    2.6139    0.0043 H   0  0  0  0  0  0  0  0  0  0  0  0
   -1.9016    2.0538   -0.0149 H   0  0  0  0  0  0  0  0  0  0  0  0
    2.9565    1.0034   -1.0113 H   0  0  0  0  0  0  0  0  0  0  0  0
    2.7417    1.8659    0.5309 H   0  0  0  0  0  0  0  0  0  0  0  0
    3.1498    0.1334    0.5295 H   0  0  0  0  0  0  0  0  0  0  0  0
    2.0227   -2.1103   -1.0247 H   0  0  0  0  0  0  0  0  0  0  0  0
    2.6591   -1.5027    0.5226 H   0  0  0  0  0  0  0  0  0  0  0  0
    1.3646   -2.7243    0.5109 H   0  0  0  0  0  0  0  0  0  0  0  0
   -3.2786   -0.4689    0.8455 H   0  0  0  0  0  0  0  0  0  0  0  0
  1  2  2  0  0  0  0
  2  3  1  0  0  0  0
  3  4  2  0  0  0  0
  4  5  1  0  0  0  0
  5  6  2  0  0  0  0
  1  6  1  0  0  0  0
  4  7  1  0  0  0  0
  3  8  1  0  0  0  0
  1  9  1  0  0  0  0
  2 10  1  0  0  0  0
  5 11  1  0  0  0  0
  6 12  1  0  0  0  0
  7 13  1  0  0  0  0
  7 14  1  0  0  0  0
  7 15  1  0  0  0  0
  8 16  1  0  0  0  0
  8 17  1  0  0  0  0
  8 18  1  0  0  0  0
  9 19  1  0  0  0  0
M  END
$$$$
