C7H9N
APtclcactv12151716193D 0   0.00000     0.00000
 
 17 17  0  0  0  0  0  0  0  0999 V2000
    1.8390   -0.6641   -0.0001 N   0  0  0  0  0  0  0  0  0  0  0  0
    0.7083   -1.3424    0.0001 C   0  0  0  0  0  0  0  0  0  0  0  0
   -0.5090   -0.6875    0.0002 C   0  0  0  0  0  0  0  0  0  0  0  0
   -0.5303    0.6986    0.0002 C   0  0  0  0  0  0  0  0  0  0  0  0
    0.6790    1.3773    0.0001 C   0  0  0  0  0  0  0  0  0  0  0  0
    1.8567    0.6546   -0.0001 C   0  0  0  0  0  0  0  0  0  0  0  0
   -1.8366    1.4500   -0.0001 C   0  0  0  0  0  0  0  0  0  0  0  0
   -1.7966   -1.4704   -0.0001 C   0  0  0  0  0  0  0  0  0  0  0  0
    0.7335   -2.4221   -0.0003 H   0  0  0  0  0  0  0  0  0  0  0  0
    0.7000    2.4571   -0.0003 H   0  0  0  0  0  0  0  0  0  0  0  0
    2.8027    1.1757   -0.0002 H   0  0  0  0  0  0  0  0  0  0  0  0
   -2.1518    1.6312    1.0275 H   0  0  0  0  0  0  0  0  0  0  0  0
   -1.7077    2.4027   -0.5139 H   0  0  0  0  0  0  0  0  0  0  0  0
   -2.5952    0.8597   -0.5141 H   0  0  0  0  0  0  0  0  0  0  0  0
   -2.1072   -1.6595    1.0275 H   0  0  0  0  0  0  0  0  0  0  0  0
   -2.5694   -0.8986   -0.5138 H   0  0  0  0  0  0  0  0  0  0  0  0
   -1.6447   -2.4195   -0.5143 H   0  0  0  0  0  0  0  0  0  0  0  0
  1  2  2  0  0  0  0
  2  3  1  0  0  0  0
  3  4  2  0  0  0  0
  4  5  1  0  0  0  0
  5  6  2  0  0  0  0
  1  6  1  0  0  0  0
  4  7  1  0  0  0  0
  3  8  1  0  0  0  0
  2  9  1  0  0  0  0
  5 10  1  0  0  0  0
  6 11  1  0  0  0  0
  7 12  1  0  0  0  0
  7 13  1  0  0  0  0
  7 14  1  0  0  0  0
  8 15  1  0  0  0  0
  8 16  1  0  0  0  0
  8 17  1  0  0  0  0
M  END
$$$$
