C18H18O2
APtclcactv12211717163D 0   0.00000     0.00000
 
 38 39  0  0  0  0  0  0  0  0999 V2000
    4.7638   -2.1957   -0.3153 O   0  0  0  0  0  0  0  0  0  0  0  0
    3.7606   -1.2959   -0.1421 C   0  0  0  0  0  0  0  0  0  0  0  0
    3.1044   -1.2165    1.0789 C   0  0  0  0  0  0  0  0  0  0  0  0
    2.0862   -0.3040    1.2580 C   0  0  0  0  0  0  0  0  0  0  0  0
    1.7158    0.5394    0.2114 C   0  0  0  0  0  0  0  0  0  0  0  0
    2.3767    0.4572   -1.0135 C   0  0  0  0  0  0  0  0  0  0  0  0
    3.3977   -0.4537   -1.1846 C   0  0  0  0  0  0  0  0  0  0  0  0
    0.6210    1.5214    0.4004 C   0  0  0  0  0  0  0  0  0  0  0  0
    0.7651    2.5245    1.2759 C   0  0  0  0  0  0  0  0  0  0  0  0
   -0.3856    3.4592    1.5469 C   0  0  0  0  0  0  0  0  0  0  0  0
   -0.6325    1.3928   -0.3795 C   0  0  0  0  0  0  0  0  0  0  0  0
   -0.9604    2.3290   -1.2793 C   0  0  0  0  0  0  0  0  0  0  0  0
   -2.2351    2.1983   -2.0724 C   0  0  0  0  0  0  0  0  0  0  0  0
   -1.5237    0.2276   -0.1636 C   0  0  0  0  0  0  0  0  0  0  0  0
   -1.6941   -0.7182   -1.1738 C   0  0  0  0  0  0  0  0  0  0  0  0
   -2.5233   -1.8009   -0.9698 C   0  0  0  0  0  0  0  0  0  0  0  0
   -3.1885   -1.9495    0.2399 C   0  0  0  0  0  0  0  0  0  0  0  0
   -3.0209   -1.0094    1.2478 C   0  0  0  0  0  0  0  0  0  0  0  0
   -2.1887    0.0725    1.0520 C   0  0  0  0  0  0  0  0  0  0  0  0
   -4.0055   -3.0170    0.4375 O   0  0  0  0  0  0  0  0  0  0  0  0
    4.4679   -3.0566   -0.6415 H   0  0  0  0  0  0  0  0  0  0  0  0
    3.3915   -1.8703    1.8891 H   0  0  0  0  0  0  0  0  0  0  0  0
    1.5759   -0.2430    2.2079 H   0  0  0  0  0  0  0  0  0  0  0  0
    2.0919    1.1089   -1.8263 H   0  0  0  0  0  0  0  0  0  0  0  0
    3.9100   -0.5179   -2.1332 H   0  0  0  0  0  0  0  0  0  0  0  0
    1.7058    2.6636    1.7878 H   0  0  0  0  0  0  0  0  0  0  0  0
   -0.1163    4.1433    2.3516 H   0  0  0  0  0  0  0  0  0  0  0  0
   -0.6107    4.0292    0.6455 H   0  0  0  0  0  0  0  0  0  0  0  0
   -1.2621    2.8811    1.8396 H   0  0  0  0  0  0  0  0  0  0  0  0
   -0.3112    3.1777   -1.4365 H   0  0  0  0  0  0  0  0  0  0  0  0
   -3.0861    2.1779   -1.3916 H   0  0  0  0  0  0  0  0  0  0  0  0
   -2.3310    3.0477   -2.7486 H   0  0  0  0  0  0  0  0  0  0  0  0
   -2.2102    1.2746   -2.6506 H   0  0  0  0  0  0  0  0  0  0  0  0
   -1.1776   -0.6027   -2.1152 H   0  0  0  0  0  0  0  0  0  0  0  0
   -2.6557   -2.5339   -1.7518 H   0  0  0  0  0  0  0  0  0  0  0  0
   -3.5397   -1.1278    2.1876 H   0  0  0  0  0  0  0  0  0  0  0  0
   -2.0584    0.8032    1.8365 H   0  0  0  0  0  0  0  0  0  0  0  0
   -3.5602   -3.7890    0.8128 H   0  0  0  0  0  0  0  0  0  0  0  0
  1  2  1  0  0  0  0
  2  3  2  0  0  0  0
  3  4  1  0  0  0  0
  4  5  2  0  0  0  0
  5  6  1  0  0  0  0
  6  7  2  0  0  0  0
  2  7  1  0  0  0  0
  5  8  1  0  0  0  0
  8  9  2  0  0  0  0
  9 10  1  0  0  0  0
  8 11  1  0  0  0  0
 11 12  2  0  0  0  0
 12 13  1  0  0  0  0
 11 14  1  0  0  0  0
 14 15  2  0  0  0  0
 15 16  1  0  0  0  0
 16 17  2  0  0  0  0
 17 18  1  0  0  0  0
 18 19  2  0  0  0  0
 14 19  1  0  0  0  0
 17 20  1  0  0  0  0
  1 21  1  0  0  0  0
  3 22  1  0  0  0  0
  4 23  1  0  0  0  0
  6 24  1  0  0  0  0
  7 25  1  0  0  0  0
  9 26  1  0  0  0  0
 10 27  1  0  0  0  0
 10 28  1  0  0  0  0
 10 29  1  0  0  0  0
 12 30  1  0  0  0  0
 13 31  1  0  0  0  0
 13 32  1  0  0  0  0
 13 33  1  0  0  0  0
 15 34  1  0  0  0  0
 16 35  1  0  0  0  0
 18 36  1  0  0  0  0
 19 37  1  0  0  0  0
 20 38  1  0  0  0  0
M  END
$$$$
