C8H6Cl2O3
APtclcactv12151716253D 0   0.00000     0.00000
 
 19 19  0  0  0  0  0  0  0  0999 V2000
   -2.9690    1.8055   -0.0005 Cl  0  0  0  0  0  0  0  0  0  0  0  0
   -1.7036    0.6171   -0.0016 C   0  0  0  0  0  0  0  0  0  0  0  0
   -0.3799    1.0168   -0.0009 C   0  0  0  0  0  0  0  0  0  0  0  0
    0.6302    0.0666   -0.0013 C   0  0  0  0  0  0  0  0  0  0  0  0
    1.9320    0.4574   -0.0002 O   0  0  0  0  0  0  0  0  0  0  0  0
    2.9195   -0.5755   -0.0007 C   0  0  0  0  0  0  0  0  0  0  0  0
    4.2936    0.0433    0.0007 C   0  0  0  0  0  0  0  0  0  0  0  0
    4.4149    1.2455    0.0020 O   0  0  0  0  0  0  0  0  0  0  0  0
    5.3829   -0.7411    0.0005 O   0  0  0  0  0  0  0  0  0  0  0  0
    0.3105   -1.2836   -0.0024 C   0  0  0  0  0  0  0  0  0  0  0  0
   -1.0129   -1.6796   -0.0031 C   0  0  0  0  0  0  0  0  0  0  0  0
   -2.0201   -0.7309    0.0027 C   0  0  0  0  0  0  0  0  0  0  0  0
   -3.6824   -1.2312    0.0018 Cl  0  0  0  0  0  0  0  0  0  0  0  0
   -0.1328    2.0682   -0.0004 H   0  0  0  0  0  0  0  0  0  0  0  0
    2.7987   -1.1941    0.8886 H   0  0  0  0  0  0  0  0  0  0  0  0
    2.7997   -1.1922   -0.8914 H   0  0  0  0  0  0  0  0  0  0  0  0
    6.2426   -0.2984    0.0015 H   0  0  0  0  0  0  0  0  0  0  0  0
    1.0961   -2.0247   -0.0031 H   0  0  0  0  0  0  0  0  0  0  0  0
   -1.2616   -2.7305   -0.0043 H   0  0  0  0  0  0  0  0  0  0  0  0
  1  2  1  0  0  0  0
  2  3  1  0  0  0  0
  3  4  2  0  0  0  0
  4  5  1  0  0  0  0
  5  6  1  0  0  0  0
  6  7  1  0  0  0  0
  7  8  2  0  0  0  0
  7  9  1  0  0  0  0
  4 10  1  0  0  0  0
 10 11  2  0  0  0  0
 11 12  1  0  0  0  0
  2 12  2  0  0  0  0
 12 13  1  0  0  0  0
  3 14  1  0  0  0  0
  6 15  1  0  0  0  0
  6 16  1  0  0  0  0
  9 17  1  0  0  0  0
 10 18  1  0  0  0  0
 11 19  1  0  0  0  0
M  END
$$$$
