C8H6Cl2O3
APtclcactv12151716253D 0   0.00000     0.00000
 
 19 19  0  0  0  0  0  0  0  0999 V2000
   -3.2535    2.2468   -0.0003 Cl  0  0  0  0  0  0  0  0  0  0  0  0
   -2.0274    1.0179   -0.0007 C   0  0  0  0  0  0  0  0  0  0  0  0
   -0.6916    1.3747   -0.0008 C   0  0  0  0  0  0  0  0  0  0  0  0
    0.2878    0.3923   -0.0007 C   0  0  0  0  0  0  0  0  0  0  0  0
    1.6013    0.7410   -0.0003 O   0  0  0  0  0  0  0  0  0  0  0  0
    2.5550   -0.3231   -0.0002 C   0  0  0  0  0  0  0  0  0  0  0  0
    3.9483    0.2511    0.0002 C   0  0  0  0  0  0  0  0  0  0  0  0
    4.1082    1.4488    0.0004 O   0  0  0  0  0  0  0  0  0  0  0  0
    5.0118   -0.5679    0.0004 O   0  0  0  0  0  0  0  0  0  0  0  0
   -0.0753   -0.9466   -0.0004 C   0  0  0  0  0  0  0  0  0  0  0  0
   -1.4121   -1.2994   -0.0003 C   0  0  0  0  0  0  0  0  0  0  0  0
   -2.3876   -0.3181    0.0048 C   0  0  0  0  0  0  0  0  0  0  0  0
   -1.8671   -2.9747   -0.0006 Cl  0  0  0  0  0  0  0  0  0  0  0  0
   -0.4109    2.4175   -0.0014 H   0  0  0  0  0  0  0  0  0  0  0  0
    2.4147   -0.9367    0.8897 H   0  0  0  0  0  0  0  0  0  0  0  0
    2.4151   -0.9365   -0.8903 H   0  0  0  0  0  0  0  0  0  0  0  0
    5.8853   -0.1531    0.0006 H   0  0  0  0  0  0  0  0  0  0  0  0
    0.6858   -1.7128   -0.0007 H   0  0  0  0  0  0  0  0  0  0  0  0
   -3.4314   -0.5952    0.0053 H   0  0  0  0  0  0  0  0  0  0  0  0
  1  2  1  0  0  0  0
  2  3  1  0  0  0  0
  3  4  2  0  0  0  0
  4  5  1  0  0  0  0
  5  6  1  0  0  0  0
  6  7  1  0  0  0  0
  7  8  2  0  0  0  0
  7  9  1  0  0  0  0
  4 10  1  0  0  0  0
 10 11  2  0  0  0  0
 11 12  1  0  0  0  0
  2 12  2  0  0  0  0
 11 13  1  0  0  0  0
  3 14  1  0  0  0  0
  6 15  1  0  0  0  0
  6 16  1  0  0  0  0
  9 17  1  0  0  0  0
 10 18  1  0  0  0  0
 12 19  1  0  0  0  0
M  END
$$$$
