C7H5NO4
APtclcactv12151716143D 0   0.00000     0.00000
 
 17 17  0  0  0  0  0  0  0  0999 V2000
    0.0000   -2.1785   -0.0000 N   0  0  0  0  0  0  0  0  0  0  0  0
   -1.1525   -1.5404    0.0001 C   0  0  0  0  0  0  0  0  0  0  0  0
   -1.1992   -0.1440    0.0003 C   0  0  0  0  0  0  0  0  0  0  0  0
    0.0000    0.5743    0.0005 C   0  0  0  0  0  0  0  0  0  0  0  0
    1.1992   -0.1440    0.0003 C   0  0  0  0  0  0  0  0  0  0  0  0
    1.1525   -1.5404    0.0001 C   0  0  0  0  0  0  0  0  0  0  0  0
    2.4965    0.5627   -0.0001 C   0  0  0  0  0  0  0  0  0  0  0  0
    2.5266    1.7770   -0.0003 O   0  0  0  0  0  0  0  0  0  0  0  0
    3.6460   -0.1395   -0.0002 O   0  0  0  0  0  0  0  0  0  0  0  0
   -2.4965    0.5627   -0.0000 C   0  0  0  0  0  0  0  0  0  0  0  0
   -2.5266    1.7770    0.0002 O   0  0  0  0  0  0  0  0  0  0  0  0
   -3.6460   -0.1395   -0.0006 O   0  0  0  0  0  0  0  0  0  0  0  0
   -2.0737   -2.1042   -0.0003 H   0  0  0  0  0  0  0  0  0  0  0  0
    0.0000    1.6543    0.0003 H   0  0  0  0  0  0  0  0  0  0  0  0
    2.0737   -2.1042   -0.0000 H   0  0  0  0  0  0  0  0  0  0  0  0
    4.4698    0.3669   -0.0005 H   0  0  0  0  0  0  0  0  0  0  0  0
   -4.4698    0.3669   -0.0008 H   0  0  0  0  0  0  0  0  0  0  0  0
  1  2  2  0  0  0  0
  2  3  1  0  0  0  0
  3  4  2  0  0  0  0
  4  5  1  0  0  0  0
  5  6  2  0  0  0  0
  1  6  1  0  0  0  0
  5  7  1  0  0  0  0
  7  8  2  0  0  0  0
  7  9  1  0  0  0  0
  3 10  1  0  0  0  0
 10 11  2  0  0  0  0
 10 12  1  0  0  0  0
  2 13  1  0  0  0  0
  4 14  1  0  0  0  0
  6 15  1  0  0  0  0
  9 16  1  0  0  0  0
 12 17  1  0  0  0  0
M  END
$$$$
