C6H4N2O5
APtclcactv12211716493D 0   0.00000     0.00000
 
 17 17  0  0  0  0  0  0  0  0999 V2000
   -2.4789    0.8665   -0.0022 N   0  3  0  0  0  0  0  0  0  0  0  0
   -3.5346    0.2591    0.0022 O   0  0  0  0  0  0  0  0  0  0  0  0
   -2.4771    2.0845   -0.0063 O   0  5  0  0  0  0  0  0  0  0  0  0
   -1.1981    0.1246    0.0035 C   0  0  0  0  0  0  0  0  0  0  0  0
   -1.2008   -1.2568    0.0139 C   0  0  0  0  0  0  0  0  0  0  0  0
   -0.0000   -1.9516    0.0192 C   0  0  0  0  0  0  0  0  0  0  0  0
    1.2008   -1.2568    0.0142 C   0  0  0  0  0  0  0  0  0  0  0  0
    1.1981    0.1246    0.0038 C   0  0  0  0  0  0  0  0  0  0  0  0
   -0.0000    0.8147   -0.0072 C   0  0  0  0  0  0  0  0  0  0  0  0
    2.4789    0.8665   -0.0011 N   0  3  0  0  0  0  0  0  0  0  0  0
    3.5346    0.2591    0.0040 O   0  0  0  0  0  0  0  0  0  0  0  0
    2.4771    2.0845   -0.0102 O   0  5  0  0  0  0  0  0  0  0  0  0
   -0.0000   -3.3106    0.0299 O   0  0  0  0  0  0  0  0  0  0  0  0
   -2.1369   -1.7955    0.0181 H   0  0  0  0  0  0  0  0  0  0  0  0
    2.1369   -1.7955    0.0187 H   0  0  0  0  0  0  0  0  0  0  0  0
   -0.0000    1.8946   -0.0153 H   0  0  0  0  0  0  0  0  0  0  0  0
   -0.0001   -3.7108   -0.8504 H   0  0  0  0  0  0  0  0  0  0  0  0
  1  2  2  0  0  0  0
  1  3  1  0  0  0  0
  1  4  1  0  0  0  0
  4  5  1  0  0  0  0
  5  6  2  0  0  0  0
  6  7  1  0  0  0  0
  7  8  2  0  0  0  0
  8  9  1  0  0  0  0
  4  9  2  0  0  0  0
  8 10  1  0  0  0  0
 10 11  2  0  0  0  0
 10 12  1  0  0  0  0
  6 13  1  0  0  0  0
  5 14  1  0  0  0  0
  7 15  1  0  0  0  0
  9 16  1  0  0  0  0
 13 17  1  0  0  0  0
M  CHG  4   1   1   3  -1  10   1  12  -1
M  END
$$$$
