C10H22
APtclcactv12211717303D 0   0.00000     0.00000
 
 32 31  0  0  0  0  0  0  0  0999 V2000
    1.7048    0.0531   -1.5486 C   0  0  0  0  0  0  0  0  0  0  0  0
    1.4791   -0.0834   -0.0415 C   0  0  0  0  0  0  0  0  0  0  0  0
    2.8254   -0.0256    0.6830 C   0  0  0  0  0  0  0  0  0  0  0  0
    3.6693   -1.2393    0.2886 C   0  0  0  0  0  0  0  0  0  0  0  0
    0.5879    1.0606    0.4463 C   0  0  0  0  0  0  0  0  0  0  0  0
   -0.8043    0.9222   -0.1729 C   0  0  0  0  0  0  0  0  0  0  0  0
   -1.4768   -0.3438    0.3619 C   0  0  0  0  0  0  0  0  0  0  0  0
   -2.8157   -0.5494   -0.3494 C   0  0  0  0  0  0  0  0  0  0  0  0
   -3.4882   -1.8154    0.1854 C   0  0  0  0  0  0  0  0  0  0  0  0
   -1.6498    2.1431    0.1950 C   0  0  0  0  0  0  0  0  0  0  0  0
    2.4082   -0.7102   -1.8813 H   0  0  0  0  0  0  0  0  0  0  0  0
    0.7566   -0.0742   -2.0710 H   0  0  0  0  0  0  0  0  0  0  0  0
    2.1103    1.0410   -1.7673 H   0  0  0  0  0  0  0  0  0  0  0  0
    0.9941   -1.0367    0.1684 H   0  0  0  0  0  0  0  0  0  0  0  0
    3.3498    0.8880    0.4031 H   0  0  0  0  0  0  0  0  0  0  0  0
    2.6589   -0.0334    1.7602 H   0  0  0  0  0  0  0  0  0  0  0  0
    3.1449   -2.1530    0.5686 H   0  0  0  0  0  0  0  0  0  0  0  0
    3.8358   -1.2315   -0.7886 H   0  0  0  0  0  0  0  0  0  0  0  0
    4.6285   -1.1982    0.8048 H   0  0  0  0  0  0  0  0  0  0  0  0
    0.5079    1.0209    1.5327 H   0  0  0  0  0  0  0  0  0  0  0  0
    1.0248    2.0138    0.1487 H   0  0  0  0  0  0  0  0  0  0  0  0
   -0.7147    0.8556   -1.2572 H   0  0  0  0  0  0  0  0  0  0  0  0
   -0.8320   -1.2031    0.1781 H   0  0  0  0  0  0  0  0  0  0  0  0
   -1.6469   -0.2398    1.4335 H   0  0  0  0  0  0  0  0  0  0  0  0
   -3.4606    0.3099   -0.1655 H   0  0  0  0  0  0  0  0  0  0  0  0
   -2.6456   -0.6534   -1.4210 H   0  0  0  0  0  0  0  0  0  0  0  0
   -2.8434   -2.6747    0.0016 H   0  0  0  0  0  0  0  0  0  0  0  0
   -3.6583   -1.7114    1.2571 H   0  0  0  0  0  0  0  0  0  0  0  0
   -4.4421   -1.9619   -0.3213 H   0  0  0  0  0  0  0  0  0  0  0  0
   -1.1260    3.0511   -0.1036 H   0  0  0  0  0  0  0  0  0  0  0  0
   -2.6084    2.0902   -0.3213 H   0  0  0  0  0  0  0  0  0  0  0  0
   -1.8175    2.1578    1.2719 H   0  0  0  0  0  0  0  0  0  0  0  0
  1  2  1  0  0  0  0
  2  3  1  0  0  0  0
  3  4  1  0  0  0  0
  2  5  1  0  0  0  0
  5  6  1  0  0  0  0
  6  7  1  0  0  0  0
  7  8  1  0  0  0  0
  8  9  1  0  0  0  0
  6 10  1  0  0  0  0
  1 11  1  0  0  0  0
  1 12  1  0  0  0  0
  1 13  1  0  0  0  0
  2 14  1  0  0  0  0
  3 15  1  0  0  0  0
  3 16  1  0  0  0  0
  4 17  1  0  0  0  0
  4 18  1  0  0  0  0
  4 19  1  0  0  0  0
  5 20  1  0  0  0  0
  5 21  1  0  0  0  0
  6 22  1  0  0  0  0
  7 23  1  0  0  0  0
  7 24  1  0  0  0  0
  8 25  1  0  0  0  0
  8 26  1  0  0  0  0
  9 27  1  0  0  0  0
  9 28  1  0  0  0  0
  9 29  1  0  0  0  0
 10 30  1  0  0  0  0
 10 31  1  0  0  0  0
 10 32  1  0  0  0  0
M  END
$$$$
