C16H14N2O3
APtclcactv12211717113D 0   0.00000     0.00000
 
 35 37  0  0  0  0  0  0  0  0999 V2000
    1.9390    1.0361    1.1268 C   0  0  0  0  0  0  0  0  0  0  0  0
    3.0484    1.8520    1.2466 C   0  0  0  0  0  0  0  0  0  0  0  0
    3.4848    2.5888    0.1615 C   0  0  0  0  0  0  0  0  0  0  0  0
    2.8121    2.5095   -1.0435 C   0  0  0  0  0  0  0  0  0  0  0  0
    1.7032    1.6929   -1.1635 C   0  0  0  0  0  0  0  0  0  0  0  0
    0.7780   -1.9761    1.0427 C   0  0  0  0  0  0  0  0  0  0  0  0
    1.1456   -3.3081    1.0830 C   0  0  0  0  0  0  0  0  0  0  0  0
    1.1915   -4.0481   -0.0837 C   0  0  0  0  0  0  0  0  0  0  0  0
    0.8693   -3.4562   -1.2907 C   0  0  0  0  0  0  0  0  0  0  0  0
    0.5022   -2.1241   -1.3311 C   0  0  0  0  0  0  0  0  0  0  0  0
   -3.3036    1.1832    0.9156 C   0  0  0  0  0  0  0  0  0  0  0  0
   -5.1215    0.3391    1.2057 H   0  0  0  0  0  0  0  0  0  0  0  0
   -0.3370    0.2828   -2.3574 H   0  0  0  0  0  0  0  0  0  0  0  0
    1.2659    0.9571   -0.0780 C   0  0  0  0  0  0  0  0  0  0  0  0
    0.4563   -1.3841   -0.1644 C   0  0  0  0  0  0  0  0  0  0  0  0
   -2.7689    1.1015   -1.8761 O   0  0  0  0  0  0  0  0  0  0  0  0
   -0.7884    0.2834    2.0780 O   0  0  0  0  0  0  0  0  0  0  0  0
   -4.2748    0.1435    0.7816 O   0  0  0  0  0  0  0  0  0  0  0  0
   -1.9028    0.7779   -1.0873 C   0  0  0  0  0  0  0  0  0  0  0  0
   -0.9504    0.3821    0.8806 C   0  0  0  0  0  0  0  0  0  0  0  0
    0.0561    0.0681   -0.2085 C   0  0  0  0  0  0  0  0  0  0  0  0
   -2.0658    0.7853    0.2406 N   0  0  0  0  0  0  0  0  0  0  0  0
   -0.6749    0.3667   -1.4520 N   0  0  0  0  0  0  0  0  0  0  0  0
   -3.6862    2.0982    0.4632 H   0  0  0  0  0  0  0  0  0  0  0  0
   -3.1014    1.3575    1.9724 H   0  0  0  0  0  0  0  0  0  0  0  0
    1.6007    0.4569    1.9733 H   0  0  0  0  0  0  0  0  0  0  0  0
    3.5740    1.9140    2.1880 H   0  0  0  0  0  0  0  0  0  0  0  0
    4.3512    3.2268    0.2552 H   0  0  0  0  0  0  0  0  0  0  0  0
    3.1526    3.0857   -1.8911 H   0  0  0  0  0  0  0  0  0  0  0  0
    1.1774    1.6312   -2.1049 H   0  0  0  0  0  0  0  0  0  0  0  0
    0.7379   -1.3991    1.9547 H   0  0  0  0  0  0  0  0  0  0  0  0
    1.3974   -3.7704    2.0260 H   0  0  0  0  0  0  0  0  0  0  0  0
    1.4794   -5.0885   -0.0523 H   0  0  0  0  0  0  0  0  0  0  0  0
    0.9058   -4.0342   -2.2023 H   0  0  0  0  0  0  0  0  0  0  0  0
    0.2508   -1.6617   -2.2741 H   0  0  0  0  0  0  0  0  0  0  0  0
 11 18  1  0  0  0  0
 11 22  1  0  0  0  0
 19 22  1  0  0  0  0
 16 19  2  0  0  0  0
 19 23  1  0  0  0  0
 21 23  1  0  0  0  0
 20 21  1  0  0  0  0
 20 22  1  0  0  0  0
 17 20  2  0  0  0  0
 14 21  1  0  0  0  0
  1 14  1  0  0  0  0
  1  2  2  0  0  0  0
  2  3  1  0  0  0  0
  3  4  2  0  0  0  0
  4  5  1  0  0  0  0
  5 14  2  0  0  0  0
 15 21  1  0  0  0  0
  6 15  1  0  0  0  0
  6  7  2  0  0  0  0
  7  8  1  0  0  0  0
  8  9  2  0  0  0  0
  9 10  1  0  0  0  0
 10 15  2  0  0  0  0
 12 18  1  0  0  0  0
 11 24  1  0  0  0  0
 11 25  1  0  0  0  0
 13 23  1  0  0  0  0
  1 26  1  0  0  0  0
  2 27  1  0  0  0  0
  3 28  1  0  0  0  0
  4 29  1  0  0  0  0
  5 30  1  0  0  0  0
  6 31  1  0  0  0  0
  7 32  1  0  0  0  0
  8 33  1  0  0  0  0
  9 34  1  0  0  0  0
 10 35  1  0  0  0  0
M  END
$$$$
