C7H4BrNS
APtclcactv12151716123D 0   0.00000     0.00000
 
 14 14  0  0  0  0  0  0  0  0999 V2000
   -2.9696    0.3348   -0.0001 Br  0  0  0  0  0  0  0  0  0  0  0  0
   -1.1726   -0.2542   -0.0008 C   0  0  0  0  0  0  0  0  0  0  0  0
   -0.1588    0.6591   -0.0000 C   0  0  0  0  0  0  0  0  0  0  0  0
    1.1869    0.2127   -0.0001 C   0  0  0  0  0  0  0  0  0  0  0  0
    1.4571   -1.1799   -0.0010 C   0  0  0  0  0  0  0  0  0  0  0  0
    0.4225   -2.0679   -0.0018 C   0  0  0  0  0  0  0  0  0  0  0  0
   -0.8911   -1.6155    0.0036 C   0  0  0  0  0  0  0  0  0  0  0  0
    2.1821    1.0875    0.0003 N   0  0  0  0  0  0  0  0  0  0  0  0
    3.3662    0.6871    0.0002 C   0  0  0  0  0  0  0  0  0  0  0  0
    4.8379    0.1894    0.0001 S   0  0  0  0  0  0  0  0  0  0  0  0
   -0.3803    1.7162    0.0003 H   0  0  0  0  0  0  0  0  0  0  0  0
    2.4771   -1.5348   -0.0014 H   0  0  0  0  0  0  0  0  0  0  0  0
    0.6252   -3.1287   -0.0029 H   0  0  0  0  0  0  0  0  0  0  0  0
   -1.7020   -2.3288    0.0032 H   0  0  0  0  0  0  0  0  0  0  0  0
  1  2  1  0  0  0  0
  2  3  1  0  0  0  0
  3  4  2  0  0  0  0
  4  5  1  0  0  0  0
  5  6  2  0  0  0  0
  6  7  1  0  0  0  0
  2  7  2  0  0  0  0
  4  8  1  0  0  0  0
  8  9  2  0  0  0  0
  9 10  2  0  0  0  0
  3 11  1  0  0  0  0
  5 12  1  0  0  0  0
  6 13  1  0  0  0  0
  7 14  1  0  0  0  0
M  END
$$$$
