C10H14O2
APtclcactv12211717263D 0   0.00000     0.00000
 
 26 26  0  0  0  0  0  0  0  0999 V2000
   -1.6910   -0.2503    0.0008 C   0  0  0  0  0  0  0  0  0  0  0  0
   -3.0082    0.5281   -0.0024 C   0  0  0  0  0  0  0  0  0  0  0  0
   -4.1812   -0.4542    0.0089 C   0  0  0  0  0  0  0  0  0  0  0  0
   -5.4983    0.3242    0.0058 C   0  0  0  0  0  0  0  0  0  0  0  0
   -0.5955    0.6672   -0.0098 O   0  0  0  0  0  0  0  0  0  0  0  0
    0.6549    0.1350   -0.0086 C   0  0  0  0  0  0  0  0  0  0  0  0
    1.7635    0.9679   -0.0185 C   0  0  0  0  0  0  0  0  0  0  0  0
    3.0376    0.4220   -0.0172 C   0  0  0  0  0  0  0  0  0  0  0  0
    3.2009   -0.9562   -0.0060 C   0  0  0  0  0  0  0  0  0  0  0  0
    2.0948   -1.7839    0.0039 C   0  0  0  0  0  0  0  0  0  0  0  0
    0.8234   -1.2421    0.0084 C   0  0  0  0  0  0  0  0  0  0  0  0
    4.1260    1.2357   -0.0274 O   0  0  0  0  0  0  0  0  0  0  0  0
   -1.6373   -0.8699    0.8959 H   0  0  0  0  0  0  0  0  0  0  0  0
   -1.6420   -0.8850   -0.8840 H   0  0  0  0  0  0  0  0  0  0  0  0
   -3.0573    1.1629    0.8823 H   0  0  0  0  0  0  0  0  0  0  0  0
   -3.0619    1.1478   -0.8975 H   0  0  0  0  0  0  0  0  0  0  0  0
   -4.1321   -1.0889   -0.8758 H   0  0  0  0  0  0  0  0  0  0  0  0
   -4.1275   -1.0738    0.9041 H   0  0  0  0  0  0  0  0  0  0  0  0
   -5.5474    0.9590    0.8905 H   0  0  0  0  0  0  0  0  0  0  0  0
   -5.5520    0.9439   -0.8894 H   0  0  0  0  0  0  0  0  0  0  0  0
   -6.3340   -0.3756    0.0139 H   0  0  0  0  0  0  0  0  0  0  0  0
    1.6344    2.0401   -0.0276 H   0  0  0  0  0  0  0  0  0  0  0  0
    4.1934   -1.3820   -0.0054 H   0  0  0  0  0  0  0  0  0  0  0  0
    2.2239   -2.8562    0.0126 H   0  0  0  0  0  0  0  0  0  0  0  0
   -0.0397   -1.8912    0.0165 H   0  0  0  0  0  0  0  0  0  0  0  0
    4.4435    1.4790    0.8530 H   0  0  0  0  0  0  0  0  0  0  0  0
  1  2  1  0  0  0  0
  2  3  1  0  0  0  0
  3  4  1  0  0  0  0
  1  5  1  0  0  0  0
  5  6  1  0  0  0  0
  6  7  1  0  0  0  0
  7  8  2  0  0  0  0
  8  9  1  0  0  0  0
  9 10  2  0  0  0  0
 10 11  1  0  0  0  0
  6 11  2  0  0  0  0
  8 12  1  0  0  0  0
  1 13  1  0  0  0  0
  1 14  1  0  0  0  0
  2 15  1  0  0  0  0
  2 16  1  0  0  0  0
  3 17  1  0  0  0  0
  3 18  1  0  0  0  0
  4 19  1  0  0  0  0
  4 20  1  0  0  0  0
  4 21  1  0  0  0  0
  7 22  1  0  0  0  0
  9 23  1  0  0  0  0
 10 24  1  0  0  0  0
 11 25  1  0  0  0  0
 12 26  1  0  0  0  0
M  END
$$$$
