C7H7ClO
APtclcactv12151716173D 0   0.00000     0.00000
 
 16 16  0  0  0  0  0  0  0  0999 V2000
   -2.7876    0.6077   -0.0005 Cl  0  0  0  0  0  0  0  0  0  0  0  0
   -1.1805   -0.0487   -0.0007 C   0  0  0  0  0  0  0  0  0  0  0  0
   -0.0878    0.7987    0.0002 C   0  0  0  0  0  0  0  0  0  0  0  0
    1.1956    0.2731    0.0000 C   0  0  0  0  0  0  0  0  0  0  0  0
    1.3798   -1.1022   -0.0011 C   0  0  0  0  0  0  0  0  0  0  0  0
    0.2855   -1.9450   -0.0020 C   0  0  0  0  0  0  0  0  0  0  0  0
   -0.9935   -1.4197    0.0040 C   0  0  0  0  0  0  0  0  0  0  0  0
    2.2711    1.1038    0.0005 O   0  0  0  0  0  0  0  0  0  0  0  0
    3.5629    0.4926    0.0002 C   0  0  0  0  0  0  0  0  0  0  0  0
   -0.2337    1.8688    0.0007 H   0  0  0  0  0  0  0  0  0  0  0  0
    2.3785   -1.5135   -0.0016 H   0  0  0  0  0  0  0  0  0  0  0  0
    0.4290   -3.0155   -0.0032 H   0  0  0  0  0  0  0  0  0  0  0  0
   -1.8478   -2.0804    0.0033 H   0  0  0  0  0  0  0  0  0  0  0  0
    3.6715   -0.1276    0.8899 H   0  0  0  0  0  0  0  0  0  0  0  0
    3.6716   -0.1268   -0.8900 H   0  0  0  0  0  0  0  0  0  0  0  0
    4.3308    1.2662    0.0006 H   0  0  0  0  0  0  0  0  0  0  0  0
  1  2  1  0  0  0  0
  2  3  1  0  0  0  0
  3  4  2  0  0  0  0
  4  5  1  0  0  0  0
  5  6  2  0  0  0  0
  6  7  1  0  0  0  0
  2  7  2  0  0  0  0
  4  8  1  0  0  0  0
  8  9  1  0  0  0  0
  3 10  1  0  0  0  0
  5 11  1  0  0  0  0
  6 12  1  0  0  0  0
  7 13  1  0  0  0  0
  9 14  1  0  0  0  0
  9 15  1  0  0  0  0
  9 16  1  0  0  0  0
M  END
$$$$
