C7H4ClNS
APtclcactv12151716123D 0   0.00000     0.00000
 
 14 14  0  0  0  0  0  0  0  0999 V2000
   -3.6014    0.6036   -0.0004 Cl  0  0  0  0  0  0  0  0  0  0  0  0
   -1.9875   -0.0361   -0.0007 C   0  0  0  0  0  0  0  0  0  0  0  0
   -0.9200    0.8143    0.0002 C   0  0  0  0  0  0  0  0  0  0  0  0
    0.3961    0.2872    0.0000 C   0  0  0  0  0  0  0  0  0  0  0  0
    0.5815   -1.1193   -0.0011 C   0  0  0  0  0  0  0  0  0  0  0  0
   -0.5050   -1.9431   -0.0020 C   0  0  0  0  0  0  0  0  0  0  0  0
   -1.7888   -1.4121    0.0040 C   0  0  0  0  0  0  0  0  0  0  0  0
    1.4425    1.1000    0.0004 N   0  0  0  0  0  0  0  0  0  0  0  0
    2.6001    0.6285    0.0003 C   0  0  0  0  0  0  0  0  0  0  0  0
    4.0389    0.0426    0.0000 S   0  0  0  0  0  0  0  0  0  0  0  0
   -1.0770    1.8829    0.0007 H   0  0  0  0  0  0  0  0  0  0  0  0
    1.5781   -1.5353   -0.0016 H   0  0  0  0  0  0  0  0  0  0  0  0
   -0.3668   -3.0142   -0.0032 H   0  0  0  0  0  0  0  0  0  0  0  0
   -2.6413   -2.0752    0.0036 H   0  0  0  0  0  0  0  0  0  0  0  0
  1  2  1  0  0  0  0
  2  3  1  0  0  0  0
  3  4  2  0  0  0  0
  4  5  1  0  0  0  0
  5  6  2  0  0  0  0
  6  7  1  0  0  0  0
  2  7  2  0  0  0  0
  4  8  1  0  0  0  0
  8  9  2  0  0  0  0
  9 10  2  0  0  0  0
  3 11  1  0  0  0  0
  5 12  1  0  0  0  0
  6 13  1  0  0  0  0
  7 14  1  0  0  0  0
M  END
$$$$
