C12H9Cl
APtclcactv12111704563D 0   0.00000     0.00000
 
 22 23  0  0  0  0  0  0  0  0999 V2000
   -3.5049    1.2743    0.2536 Cl  0  0  0  0  0  0  0  0  0  0  0  0
   -2.2562    0.0882    0.0351 C   0  0  0  0  0  0  0  0  0  0  0  0
   -0.9285    0.4663    0.0897 C   0  0  0  0  0  0  0  0  0  0  0  0
    0.0720   -0.4870   -0.0855 C   0  0  0  0  0  0  0  0  0  0  0  0
   -0.2727   -1.8177   -0.3149 C   0  0  0  0  0  0  0  0  0  0  0  0
   -1.6020   -2.1849   -0.3675 C   0  0  0  0  0  0  0  0  0  0  0  0
   -2.5922   -1.2359   -0.1878 C   0  0  0  0  0  0  0  0  0  0  0  0
    1.4998   -0.0870   -0.0285 C   0  0  0  0  0  0  0  0  0  0  0  0
    2.4316   -0.9091    0.6018 C   0  0  0  0  0  0  0  0  0  0  0  0
    3.7584   -0.5321    0.6520 C   0  0  0  0  0  0  0  0  0  0  0  0
    4.1636    0.6594    0.0780 C   0  0  0  0  0  0  0  0  0  0  0  0
    3.2427    1.4796   -0.5486 C   0  0  0  0  0  0  0  0  0  0  0  0
    1.9145    1.1094   -0.6100 C   0  0  0  0  0  0  0  0  0  0  0  0
   -0.6668    1.4990    0.2674 H   0  0  0  0  0  0  0  0  0  0  0  0
    0.4993   -2.5605   -0.4517 H   0  0  0  0  0  0  0  0  0  0  0  0
   -1.8696   -3.2159   -0.5457 H   0  0  0  0  0  0  0  0  0  0  0  0
   -3.6312   -1.5277   -0.2298 H   0  0  0  0  0  0  0  0  0  0  0  0
    2.1163   -1.8394    1.0506 H   0  0  0  0  0  0  0  0  0  0  0  0
    4.4815   -1.1684    1.1405 H   0  0  0  0  0  0  0  0  0  0  0  0
    5.2028    0.9506    0.1195 H   0  0  0  0  0  0  0  0  0  0  0  0
    3.5644    2.4091   -0.9945 H   0  0  0  0  0  0  0  0  0  0  0  0
    1.1963    1.7505   -1.0994 H   0  0  0  0  0  0  0  0  0  0  0  0
  1  2  1  0  0  0  0
  2  3  1  0  0  0  0
  3  4  2  0  0  0  0
  4  5  1  0  0  0  0
  5  6  2  0  0  0  0
  6  7  1  0  0  0  0
  2  7  2  0  0  0  0
  4  8  1  0  0  0  0
  8  9  2  0  0  0  0
  9 10  1  0  0  0  0
 10 11  2  0  0  0  0
 11 12  1  0  0  0  0
 12 13  2  0  0  0  0
  8 13  1  0  0  0  0
  3 14  1  0  0  0  0
  5 15  1  0  0  0  0
  6 16  1  0  0  0  0
  7 17  1  0  0  0  0
  9 18  1  0  0  0  0
 10 19  1  0  0  0  0
 11 20  1  0  0  0  0
 12 21  1  0  0  0  0
 13 22  1  0  0  0  0
M  END
$$$$
