C4H5ClO2
APtclcactv12211716373D 0   0.00000     0.00000
 
 12 11  0  0  0  0  0  0  0  0999 V2000
   -2.3672    0.4316   -0.0478 Cl  0  0  0  0  0  0  0  0  0  0  0  0
   -0.7419   -0.1700    0.0535 C   0  0  0  0  0  0  0  0  0  0  0  0
    0.2862    0.6807    0.0446 C   0  0  0  0  0  0  0  0  0  0  0  0
    1.6594    0.1708   -0.0286 C   0  0  0  0  0  0  0  0  0  0  0  0
    1.8588   -1.0174   -0.1911 O   0  0  0  0  0  0  0  0  0  0  0  0
    2.7008    1.0198    0.0843 O   0  0  0  0  0  0  0  0  0  0  0  0
   -0.4922   -1.6525    0.1577 C   0  0  0  0  0  0  0  0  0  0  0  0
    0.1071    1.7448    0.0912 H   0  0  0  0  0  0  0  0  0  0  0  0
    3.5871    0.6371    0.0297 H   0  0  0  0  0  0  0  0  0  0  0  0
   -0.2953   -2.0584   -0.8346 H   0  0  0  0  0  0  0  0  0  0  0  0
    0.3693   -1.8315    0.8010 H   0  0  0  0  0  0  0  0  0  0  0  0
   -1.3701   -2.1398    0.5820 H   0  0  0  0  0  0  0  0  0  0  0  0
  1  2  1  0  0  0  0
  2  3  2  0  0  0  0
  3  4  1  0  0  0  0
  4  5  2  0  0  0  0
  4  6  1  0  0  0  0
  2  7  1  0  0  0  0
  3  8  1  0  0  0  0
  6  9  1  0  0  0  0
  7 10  1  0  0  0  0
  7 11  1  0  0  0  0
  7 12  1  0  0  0  0
M  END
$$$$
