C9H20
APtclcactv12151716533D 0   0.00000     0.00000
 
 29 28  0  0  0  0  0  0  0  0999 V2000
   -1.1168   -1.4447    0.3662 C   0  0  0  0  0  0  0  0  0  0  0  0
   -2.3419   -2.1090   -0.2654 C   0  0  0  0  0  0  0  0  0  0  0  0
   -0.9773   -0.0183   -0.1692 C   0  0  0  0  0  0  0  0  0  0  0  0
   -2.1656    0.8220    0.3027 C   0  0  0  0  0  0  0  0  0  0  0  0
   -2.1012    2.2062   -0.3461 C   0  0  0  0  0  0  0  0  0  0  0  0
    0.3223    0.5977    0.3530 C   0  0  0  0  0  0  0  0  0  0  0  0
    1.5161   -0.1684   -0.2203 C   0  0  0  0  0  0  0  0  0  0  0  0
    2.8157    0.4476    0.3019 C   0  0  0  0  0  0  0  0  0  0  0  0
    4.0096   -0.3185   -0.2715 C   0  0  0  0  0  0  0  0  0  0  0  0
   -1.2368   -1.4163    1.4492 H   0  0  0  0  0  0  0  0  0  0  0  0
   -0.2234   -2.0162    0.1145 H   0  0  0  0  0  0  0  0  0  0  0  0
   -3.2451   -1.6004    0.0716 H   0  0  0  0  0  0  0  0  0  0  0  0
   -2.2715   -2.0433   -1.3511 H   0  0  0  0  0  0  0  0  0  0  0  0
   -2.3817   -3.1565    0.0334 H   0  0  0  0  0  0  0  0  0  0  0  0
   -0.9572   -0.0394   -1.2588 H   0  0  0  0  0  0  0  0  0  0  0  0
   -3.0951    0.3297    0.0169 H   0  0  0  0  0  0  0  0  0  0  0  0
   -2.1286    0.9270    1.3870 H   0  0  0  0  0  0  0  0  0  0  0  0
   -3.0006    2.7679   -0.0939 H   0  0  0  0  0  0  0  0  0  0  0  0
   -1.2246    2.7395    0.0218 H   0  0  0  0  0  0  0  0  0  0  0  0
   -2.0324    2.0972   -1.4285 H   0  0  0  0  0  0  0  0  0  0  0  0
    0.3788    1.6418    0.0453 H   0  0  0  0  0  0  0  0  0  0  0  0
    0.3410    0.5381    1.4412 H   0  0  0  0  0  0  0  0  0  0  0  0
    1.4596   -1.2125    0.0874 H   0  0  0  0  0  0  0  0  0  0  0  0
    1.4974   -0.1088   -1.3085 H   0  0  0  0  0  0  0  0  0  0  0  0
    2.8722    1.4917   -0.0059 H   0  0  0  0  0  0  0  0  0  0  0  0
    2.8344    0.3879    1.3901 H   0  0  0  0  0  0  0  0  0  0  0  0
    4.9354    0.1203    0.1005 H   0  0  0  0  0  0  0  0  0  0  0  0
    3.9530   -1.3626    0.0362 H   0  0  0  0  0  0  0  0  0  0  0  0
    3.9908   -0.2589   -1.3597 H   0  0  0  0  0  0  0  0  0  0  0  0
  1  2  1  0  0  0  0
  1  3  1  0  0  0  0
  3  4  1  0  0  0  0
  4  5  1  0  0  0  0
  3  6  1  0  0  0  0
  6  7  1  0  0  0  0
  7  8  1  0  0  0  0
  8  9  1  0  0  0  0
  1 10  1  0  0  0  0
  1 11  1  0  0  0  0
  2 12  1  0  0  0  0
  2 13  1  0  0  0  0
  2 14  1  0  0  0  0
  3 15  1  0  0  0  0
  4 16  1  0  0  0  0
  4 17  1  0  0  0  0
  5 18  1  0  0  0  0
  5 19  1  0  0  0  0
  5 20  1  0  0  0  0
  6 21  1  0  0  0  0
  6 22  1  0  0  0  0
  7 23  1  0  0  0  0
  7 24  1  0  0  0  0
  8 25  1  0  0  0  0
  8 26  1  0  0  0  0
  9 27  1  0  0  0  0
  9 28  1  0  0  0  0
  9 29  1  0  0  0  0
M  END
$$$$
