C7H16O
APtclcactv12151716233D 0   0.00000     0.00000
 
 24 23  0  0  0  0  0  0  0  0999 V2000
   -1.2777   -0.6714    0.5084 C   0  0  0  0  0  0  0  0  0  0  0  0
   -1.3232   -2.1209    0.0207 C   0  0  0  0  0  0  0  0  0  0  0  0
    0.0014   -0.0026    0.0013 C   0  0  0  0  0  0  0  0  0  0  0  0
    0.0424    1.4496    0.4813 C   0  0  0  0  0  0  0  0  0  0  0  0
   -1.2360    2.1675    0.0440 C   0  0  0  0  0  0  0  0  0  0  0  0
    1.2191   -0.7535    0.5437 C   0  0  0  0  0  0  0  0  0  0  0  0
    2.4983   -0.0594    0.0715 C   0  0  0  0  0  0  0  0  0  0  0  0
    0.0206   -0.0328   -1.4273 O   0  0  0  0  0  0  0  0  0  0  0  0
   -2.1452   -0.1325    0.1274 H   0  0  0  0  0  0  0  0  0  0  0  0
   -1.2892   -0.6542    1.5983 H   0  0  0  0  0  0  0  0  0  0  0  0
   -0.5102   -2.6841    0.4790 H   0  0  0  0  0  0  0  0  0  0  0  0
   -2.2773   -2.5682    0.2993 H   0  0  0  0  0  0  0  0  0  0  0  0
   -1.2144   -2.1430   -1.0636 H   0  0  0  0  0  0  0  0  0  0  0  0
    0.1174    1.4710    1.5685 H   0  0  0  0  0  0  0  0  0  0  0  0
    0.9074    1.9514    0.0475 H   0  0  0  0  0  0  0  0  0  0  0  0
   -1.3110    2.1462   -1.0432 H   0  0  0  0  0  0  0  0  0  0  0  0
   -2.1010    1.6658    0.4778 H   0  0  0  0  0  0  0  0  0  0  0  0
   -1.2069    3.2021    0.3860 H   0  0  0  0  0  0  0  0  0  0  0  0
    1.1884   -0.7566    1.6333 H   0  0  0  0  0  0  0  0  0  0  0  0
    1.2061   -1.7799    0.1770 H   0  0  0  0  0  0  0  0  0  0  0  0
    2.4999   -0.0020   -1.0170 H   0  0  0  0  0  0  0  0  0  0  0  0
    2.5409    0.9467    0.4885 H   0  0  0  0  0  0  0  0  0  0  0  0
    3.3654   -0.6286    0.4065 H   0  0  0  0  0  0  0  0  0  0  0  0
    0.8051    0.3751   -1.8188 H   0  0  0  0  0  0  0  0  0  0  0  0
  1  2  1  0  0  0  0
  1  3  1  0  0  0  0
  3  4  1  0  0  0  0
  4  5  1  0  0  0  0
  3  6  1  0  0  0  0
  6  7  1  0  0  0  0
  3  8  1  0  0  0  0
  1  9  1  0  0  0  0
  1 10  1  0  0  0  0
  2 11  1  0  0  0  0
  2 12  1  0  0  0  0
  2 13  1  0  0  0  0
  4 14  1  0  0  0  0
  4 15  1  0  0  0  0
  5 16  1  0  0  0  0
  5 17  1  0  0  0  0
  5 18  1  0  0  0  0
  6 19  1  0  0  0  0
  6 20  1  0  0  0  0
  7 21  1  0  0  0  0
  7 22  1  0  0  0  0
  7 23  1  0  0  0  0
  8 24  1  0  0  0  0
M  END
$$$$
