C9H18O2
APtclcactv12151716523D 0   0.00000     0.00000
 
 29 29  0  0  0  0  0  0  0  0999 V2000
    3.6136   -0.3106    0.2972 O   0  0  0  0  0  0  0  0  0  0  0  0
    2.2729    0.0158    0.6688 C   0  0  0  0  0  0  0  0  0  0  0  0
    1.7498    1.2224   -0.1515 C   0  0  0  0  0  0  0  0  0  0  0  0
    0.3166    1.0492   -0.1287 O   0  0  0  0  0  0  0  0  0  0  0  0
    0.0612   -0.3567   -0.2854 C   0  0  0  0  0  0  0  0  0  0  0  0
    1.2945   -1.1089    0.2511 C   0  0  0  0  0  0  0  0  0  0  0  0
   -1.1796   -0.7527    0.5172 C   0  0  0  0  0  0  0  0  0  0  0  0
   -2.4146   -0.0839   -0.0898 C   0  0  0  0  0  0  0  0  0  0  0  0
   -3.6692   -0.5770    0.6339 C   0  0  0  0  0  0  0  0  0  0  0  0
   -2.3002    1.4340    0.0644 C   0  0  0  0  0  0  0  0  0  0  0  0
   -0.1459   -0.6860   -1.7652 C   0  0  0  0  0  0  0  0  0  0  0  0
    4.2500    0.3998    0.4565 H   0  0  0  0  0  0  0  0  0  0  0  0
    2.2050    0.2138    1.7385 H   0  0  0  0  0  0  0  0  0  0  0  0
    2.0306    2.1614    0.3255 H   0  0  0  0  0  0  0  0  0  0  0  0
    2.1250    1.1829   -1.1741 H   0  0  0  0  0  0  0  0  0  0  0  0
    1.7350   -1.7266   -0.5315 H   0  0  0  0  0  0  0  0  0  0  0  0
    1.0241   -1.7189    1.1131 H   0  0  0  0  0  0  0  0  0  0  0  0
   -1.3013   -1.8355    0.4875 H   0  0  0  0  0  0  0  0  0  0  0  0
   -1.0622   -0.4285    1.5513 H   0  0  0  0  0  0  0  0  0  0  0  0
   -2.4821   -0.3376   -1.1477 H   0  0  0  0  0  0  0  0  0  0  0  0
   -3.6017   -0.3233    1.6918 H   0  0  0  0  0  0  0  0  0  0  0  0
   -4.5490   -0.1005    0.2015 H   0  0  0  0  0  0  0  0  0  0  0  0
   -3.7507   -1.6584    0.5241 H   0  0  0  0  0  0  0  0  0  0  0  0
   -1.4064    1.7852   -0.4512 H   0  0  0  0  0  0  0  0  0  0  0  0
   -3.1800    1.9104   -0.3681 H   0  0  0  0  0  0  0  0  0  0  0  0
   -2.2327    1.6876    1.1223 H   0  0  0  0  0  0  0  0  0  0  0  0
    0.7451   -0.4070   -2.3277 H   0  0  0  0  0  0  0  0  0  0  0  0
   -0.3266   -1.7551   -1.8776 H   0  0  0  0  0  0  0  0  0  0  0  0
   -1.0037   -0.1307   -2.1444 H   0  0  0  0  0  0  0  0  0  0  0  0
  1  2  1  0  0  0  0
  2  3  1  0  0  0  0
  3  4  1  0  0  0  0
  4  5  1  0  0  0  0
  5  6  1  0  0  0  0
  2  6  1  0  0  0  0
  5  7  1  0  0  0  0
  7  8  1  0  0  0  0
  8  9  1  0  0  0  0
  8 10  1  0  0  0  0
  5 11  1  0  0  0  0
  1 12  1  0  0  0  0
  2 13  1  0  0  0  0
  3 14  1  0  0  0  0
  3 15  1  0  0  0  0
  6 16  1  0  0  0  0
  6 17  1  0  0  0  0
  7 18  1  0  0  0  0
  7 19  1  0  0  0  0
  8 20  1  0  0  0  0
  9 21  1  0  0  0  0
  9 22  1  0  0  0  0
  9 23  1  0  0  0  0
 10 24  1  0  0  0  0
 10 25  1  0  0  0  0
 10 26  1  0  0  0  0
 11 27  1  0  0  0  0
 11 28  1  0  0  0  0
 11 29  1  0  0  0  0
M  END
$$$$
