C12H10N2O
APtclcactv12111704563D 0   0.00000     0.00000
 
 25 26  0  0  0  0  0  0  0  0999 V2000
    4.6625    1.5202   -0.0244 O   0  0  0  0  0  0  0  0  0  0  0  0
    3.6920    0.5688   -0.0156 C   0  0  0  0  0  0  0  0  0  0  0  0
    2.3586    0.9410   -0.0162 C   0  0  0  0  0  0  0  0  0  0  0  0
    1.3646   -0.0401   -0.0071 C   0  0  0  0  0  0  0  0  0  0  0  0
    1.7241   -1.3911    0.0026 C   0  0  0  0  0  0  0  0  0  0  0  0
    3.0559   -1.7491    0.0031 C   0  0  0  0  0  0  0  0  0  0  0  0
    4.0386   -0.7757   -0.0117 C   0  0  0  0  0  0  0  0  0  0  0  0
    0.0457    0.3191   -0.0072 N   0  0  0  0  0  0  0  0  0  0  0  0
   -0.8702   -0.5892    0.0012 N   0  0  0  0  0  0  0  0  0  0  0  0
   -2.1890   -0.2300    0.0011 C   0  0  0  0  0  0  0  0  0  0  0  0
   -3.1841   -1.2113    0.0102 C   0  0  0  0  0  0  0  0  0  0  0  0
   -4.5126   -0.8413    0.0106 C   0  0  0  0  0  0  0  0  0  0  0  0
   -4.8614    0.4979    0.0014 C   0  0  0  0  0  0  0  0  0  0  0  0
   -3.8816    1.4752   -0.0081 C   0  0  0  0  0  0  0  0  0  0  0  0
   -2.5490    1.1205   -0.0022 C   0  0  0  0  0  0  0  0  0  0  0  0
    4.9448    1.8023    0.8564 H   0  0  0  0  0  0  0  0  0  0  0  0
    2.0878    1.9865   -0.0234 H   0  0  0  0  0  0  0  0  0  0  0  0
    0.9594   -2.1537    0.0100 H   0  0  0  0  0  0  0  0  0  0  0  0
    3.3326   -2.7931    0.0106 H   0  0  0  0  0  0  0  0  0  0  0  0
    5.0798   -1.0627   -0.0115 H   0  0  0  0  0  0  0  0  0  0  0  0
   -2.9133   -2.2568    0.0166 H   0  0  0  0  0  0  0  0  0  0  0  0
   -5.2827   -1.5985    0.0176 H   0  0  0  0  0  0  0  0  0  0  0  0
   -5.9035    0.7817    0.0014 H   0  0  0  0  0  0  0  0  0  0  0  0
   -4.1613    2.5183   -0.0159 H   0  0  0  0  0  0  0  0  0  0  0  0
   -1.7854    1.8842   -0.0096 H   0  0  0  0  0  0  0  0  0  0  0  0
  1  2  1  0  0  0  0
  2  3  1  0  0  0  0
  3  4  2  0  0  0  0
  4  5  1  0  0  0  0
  5  6  2  0  0  0  0
  6  7  1  0  0  0  0
  2  7  2  0  0  0  0
  4  8  1  0  0  0  0
  8  9  2  0  0  0  0
  9 10  1  0  0  0  0
 10 11  2  0  0  0  0
 11 12  1  0  0  0  0
 12 13  2  0  0  0  0
 13 14  1  0  0  0  0
 14 15  2  0  0  0  0
 10 15  1  0  0  0  0
  1 16  1  0  0  0  0
  3 17  1  0  0  0  0
  5 18  1  0  0  0  0
  6 19  1  0  0  0  0
  7 20  1  0  0  0  0
 11 21  1  0  0  0  0
 12 22  1  0  0  0  0
 13 23  1  0  0  0  0
 14 24  1  0  0  0  0
 15 25  1  0  0  0  0
M  END
$$$$
