C8H16O2
APtclcactv12151716363D 0   0.00000     0.00000
 
 26 26  0  0  0  0  0  0  0  0999 V2000
    2.5988    1.2370    0.3032 O   0  0  0  0  0  0  0  0  0  0  0  0
    1.6060    0.4276   -0.3303 C   0  0  0  0  0  0  0  0  0  0  0  0
    1.1474   -0.7009    0.6135 C   0  0  0  0  0  0  0  0  0  0  0  0
   -0.2472   -0.4876    0.8887 O   0  0  0  0  0  0  0  0  0  0  0  0
   -0.7936    0.2329   -0.2369 C   0  0  0  0  0  0  0  0  0  0  0  0
    0.3208    1.2507   -0.5900 C   0  0  0  0  0  0  0  0  0  0  0  0
   -1.0493   -0.7148   -1.4105 C   0  0  0  0  0  0  0  0  0  0  0  0
   -2.0800    0.9591    0.1613 C   0  0  0  0  0  0  0  0  0  0  0  0
   -3.1250   -0.0640    0.6108 C   0  0  0  0  0  0  0  0  0  0  0  0
    1.3421   -2.0582   -0.0653 C   0  0  0  0  0  0  0  0  0  0  0  0
    3.4039    0.7572    0.5416 H   0  0  0  0  0  0  0  0  0  0  0  0
    1.9907    0.0129   -1.2620 H   0  0  0  0  0  0  0  0  0  0  0  0
    1.7183   -0.6630    1.5413 H   0  0  0  0  0  0  0  0  0  0  0  0
    0.2761    2.1197    0.0664 H   0  0  0  0  0  0  0  0  0  0  0  0
    0.2560    1.5511   -1.6358 H   0  0  0  0  0  0  0  0  0  0  0  0
   -1.6111   -1.5814   -1.0619 H   0  0  0  0  0  0  0  0  0  0  0  0
   -1.6222   -0.1954   -2.1787 H   0  0  0  0  0  0  0  0  0  0  0  0
   -0.0969   -1.0427   -1.8269 H   0  0  0  0  0  0  0  0  0  0  0  0
   -1.8701    1.6476    0.9799 H   0  0  0  0  0  0  0  0  0  0  0  0
   -2.4619    1.5169   -0.6937 H   0  0  0  0  0  0  0  0  0  0  0  0
   -3.3349   -0.7526   -0.2077 H   0  0  0  0  0  0  0  0  0  0  0  0
   -2.7431   -0.6218    1.4658 H   0  0  0  0  0  0  0  0  0  0  0  0
   -4.0415    0.4533    0.8945 H   0  0  0  0  0  0  0  0  0  0  0  0
    2.3721   -2.1474   -0.4105 H   0  0  0  0  0  0  0  0  0  0  0  0
    1.1273   -2.8548    0.6470 H   0  0  0  0  0  0  0  0  0  0  0  0
    0.6655   -2.1393   -0.9160 H   0  0  0  0  0  0  0  0  0  0  0  0
  1  2  1  0  0  0  0
  2  3  1  0  0  0  0
  3  4  1  0  0  0  0
  4  5  1  0  0  0  0
  5  6  1  0  0  0  0
  2  6  1  0  0  0  0
  5  7  1  0  0  0  0
  5  8  1  0  0  0  0
  8  9  1  0  0  0  0
  3 10  1  0  0  0  0
  1 11  1  0  0  0  0
  2 12  1  0  0  0  0
  3 13  1  0  0  0  0
  6 14  1  0  0  0  0
  6 15  1  0  0  0  0
  7 16  1  0  0  0  0
  7 17  1  0  0  0  0
  7 18  1  0  0  0  0
  8 19  1  0  0  0  0
  8 20  1  0  0  0  0
  9 21  1  0  0  0  0
  9 22  1  0  0  0  0
  9 23  1  0  0  0  0
 10 24  1  0  0  0  0
 10 25  1  0  0  0  0
 10 26  1  0  0  0  0
M  END
$$$$
