C10H20O2
APtclcactv12211717303D 0   0.00000     0.00000
 
 32 32  0  0  0  0  0  0  0  0999 V2000
    2.1693    2.3655   -0.3458 O   0  0  0  0  0  0  0  0  0  0  0  0
    1.8938    1.1665    0.3812 C   0  0  0  0  0  0  0  0  0  0  0  0
    0.7594    0.3691   -0.2997 C   0  0  0  0  0  0  0  0  0  0  0  0
    1.1372   -1.0161   -0.1443 O   0  0  0  0  0  0  0  0  0  0  0  0
    2.5623   -1.0502   -0.3761 C   0  0  0  0  0  0  0  0  0  0  0  0
    3.1072    0.2113    0.3298 C   0  0  0  0  0  0  0  0  0  0  0  0
    3.1722   -2.3107    0.2402 C   0  0  0  0  0  0  0  0  0  0  0  0
   -0.5748    0.6389    0.3989 C   0  0  0  0  0  0  0  0  0  0  0  0
   -1.7011   -0.0599   -0.3653 C   0  0  0  0  0  0  0  0  0  0  0  0
   -3.0353    0.2099    0.3333 C   0  0  0  0  0  0  0  0  0  0  0  0
   -4.1616   -0.4890   -0.4309 C   0  0  0  0  0  0  0  0  0  0  0  0
   -5.4958   -0.2192    0.2677 C   0  0  0  0  0  0  0  0  0  0  0  0
    2.8741    2.9050    0.0379 H   0  0  0  0  0  0  0  0  0  0  0  0
    1.6313    1.3986    1.4133 H   0  0  0  0  0  0  0  0  0  0  0  0
    0.6946    0.6285   -1.3564 H   0  0  0  0  0  0  0  0  0  0  0  0
    2.7741   -1.0085   -1.4445 H   0  0  0  0  0  0  0  0  0  0  0  0
    3.9172    0.6536   -0.2502 H   0  0  0  0  0  0  0  0  0  0  0  0
    3.4456   -0.0309    1.3372 H   0  0  0  0  0  0  0  0  0  0  0  0
    2.7364   -3.1924   -0.2298 H   0  0  0  0  0  0  0  0  0  0  0  0
    4.2503   -2.3088    0.0794 H   0  0  0  0  0  0  0  0  0  0  0  0
    2.9645   -2.3292    1.3101 H   0  0  0  0  0  0  0  0  0  0  0  0
   -0.5351    0.2555    1.4185 H   0  0  0  0  0  0  0  0  0  0  0  0
   -0.7626    1.7124    0.4214 H   0  0  0  0  0  0  0  0  0  0  0  0
   -1.7408    0.3235   -1.3849 H   0  0  0  0  0  0  0  0  0  0  0  0
   -1.5133   -1.1334   -0.3878 H   0  0  0  0  0  0  0  0  0  0  0  0
   -2.9956   -0.1735    1.3529 H   0  0  0  0  0  0  0  0  0  0  0  0
   -3.2231    1.2834    0.3558 H   0  0  0  0  0  0  0  0  0  0  0  0
   -4.2013   -0.1056   -1.4504 H   0  0  0  0  0  0  0  0  0  0  0  0
   -3.9738   -1.5624   -0.4534 H   0  0  0  0  0  0  0  0  0  0  0  0
   -5.4561   -0.6025    1.2873 H   0  0  0  0  0  0  0  0  0  0  0  0
   -5.6836    0.8543    0.2903 H   0  0  0  0  0  0  0  0  0  0  0  0
   -6.2982   -0.7170   -0.2767 H   0  0  0  0  0  0  0  0  0  0  0  0
  1  2  1  0  0  0  0
  2  3  1  0  0  0  0
  3  4  1  0  0  0  0
  4  5  1  0  0  0  0
  5  6  1  0  0  0  0
  2  6  1  0  0  0  0
  5  7  1  0  0  0  0
  3  8  1  0  0  0  0
  8  9  1  0  0  0  0
  9 10  1  0  0  0  0
 10 11  1  0  0  0  0
 11 12  1  0  0  0  0
  1 13  1  0  0  0  0
  2 14  1  0  0  0  0
  3 15  1  0  0  0  0
  5 16  1  0  0  0  0
  6 17  1  0  0  0  0
  6 18  1  0  0  0  0
  7 19  1  0  0  0  0
  7 20  1  0  0  0  0
  7 21  1  0  0  0  0
  8 22  1  0  0  0  0
  8 23  1  0  0  0  0
  9 24  1  0  0  0  0
  9 25  1  0  0  0  0
 10 26  1  0  0  0  0
 10 27  1  0  0  0  0
 11 28  1  0  0  0  0
 11 29  1  0  0  0  0
 12 30  1  0  0  0  0
 12 31  1  0  0  0  0
 12 32  1  0  0  0  0
M  END
$$$$
