C10H20O2
APtclcactv12211717303D 0   0.00000     0.00000
 
 32 32  0  0  0  0  0  0  0  0999 V2000
    1.1826    2.2913    0.1823 O   0  0  0  0  0  0  0  0  0  0  0  0
    0.8799    1.2156   -0.7085 C   0  0  0  0  0  0  0  0  0  0  0  0
    1.0622   -0.1400    0.0014 C   0  0  0  0  0  0  0  0  0  0  0  0
   -0.2041   -0.8187   -0.0419 O   0  0  0  0  0  0  0  0  0  0  0  0
   -1.2251    0.1988   -0.1259 C   0  0  0  0  0  0  0  0  0  0  0  0
   -0.6178    1.2408   -1.0994 C   0  0  0  0  0  0  0  0  0  0  0  0
   -2.5195   -0.3827   -0.6980 C   0  0  0  0  0  0  0  0  0  0  0  0
   -3.1025   -1.3969    0.2881 C   0  0  0  0  0  0  0  0  0  0  0  0
   -1.4751    0.8258    1.2471 C   0  0  0  0  0  0  0  0  0  0  0  0
    2.1223   -0.9697   -0.7259 C   0  0  0  0  0  0  0  0  0  0  0  0
    2.2957   -2.3127   -0.0138 C   0  0  0  0  0  0  0  0  0  0  0  0
    1.4818    0.0863    1.4552 C   0  0  0  0  0  0  0  0  0  0  0  0
    1.0844    3.1685   -0.2127 H   0  0  0  0  0  0  0  0  0  0  0  0
    1.5092    1.2687   -1.5969 H   0  0  0  0  0  0  0  0  0  0  0  0
   -1.0474    2.2281   -0.9299 H   0  0  0  0  0  0  0  0  0  0  0  0
   -0.7546    0.9312   -2.1355 H   0  0  0  0  0  0  0  0  0  0  0  0
   -3.2380    0.4206   -0.8604 H   0  0  0  0  0  0  0  0  0  0  0  0
   -2.3076   -0.8778   -1.6457 H   0  0  0  0  0  0  0  0  0  0  0  0
   -2.3840   -2.2002    0.4505 H   0  0  0  0  0  0  0  0  0  0  0  0
   -3.3143   -0.9018    1.2358 H   0  0  0  0  0  0  0  0  0  0  0  0
   -4.0247   -1.8111   -0.1195 H   0  0  0  0  0  0  0  0  0  0  0  0
   -0.6177    1.4371    1.5289 H   0  0  0  0  0  0  0  0  0  0  0  0
   -2.3679    1.4497    1.2045 H   0  0  0  0  0  0  0  0  0  0  0  0
   -1.6177    0.0373    1.9861 H   0  0  0  0  0  0  0  0  0  0  0  0
    1.8060   -1.1420   -1.7546 H   0  0  0  0  0  0  0  0  0  0  0  0
    3.0702   -0.4315   -0.7225 H   0  0  0  0  0  0  0  0  0  0  0  0
    2.6120   -2.1403    1.0150 H   0  0  0  0  0  0  0  0  0  0  0  0
    1.3478   -2.8508   -0.0172 H   0  0  0  0  0  0  0  0  0  0  0  0
    3.0509   -2.9038   -0.5319 H   0  0  0  0  0  0  0  0  0  0  0  0
    0.7739    0.7608    1.9369 H   0  0  0  0  0  0  0  0  0  0  0  0
    1.4918   -0.8673    1.9831 H   0  0  0  0  0  0  0  0  0  0  0  0
    2.4785    0.5266    1.4814 H   0  0  0  0  0  0  0  0  0  0  0  0
  1  2  1  0  0  0  0
  2  3  1  0  0  0  0
  3  4  1  0  0  0  0
  4  5  1  0  0  0  0
  5  6  1  0  0  0  0
  2  6  1  0  0  0  0
  5  7  1  0  0  0  0
  7  8  1  0  0  0  0
  5  9  1  0  0  0  0
  3 10  1  0  0  0  0
 10 11  1  0  0  0  0
  3 12  1  0  0  0  0
  1 13  1  0  0  0  0
  2 14  1  0  0  0  0
  6 15  1  0  0  0  0
  6 16  1  0  0  0  0
  7 17  1  0  0  0  0
  7 18  1  0  0  0  0
  8 19  1  0  0  0  0
  8 20  1  0  0  0  0
  8 21  1  0  0  0  0
  9 22  1  0  0  0  0
  9 23  1  0  0  0  0
  9 24  1  0  0  0  0
 10 25  1  0  0  0  0
 10 26  1  0  0  0  0
 11 27  1  0  0  0  0
 11 28  1  0  0  0  0
 11 29  1  0  0  0  0
 12 30  1  0  0  0  0
 12 31  1  0  0  0  0
 12 32  1  0  0  0  0
M  END
$$$$
