C10H20O2
APtclcactv12211717303D 0   0.00000     0.00000
 
 32 32  0  0  0  0  0  0  0  0999 V2000
    2.5162    0.3548    1.2688 O   0  0  0  0  0  0  0  0  0  0  0  0
    1.3494    0.6241    0.4890 C   0  0  0  0  0  0  0  0  0  0  0  0
    1.1161   -0.4844   -0.5682 C   0  0  0  0  0  0  0  0  0  0  0  0
   -0.2957   -0.4601   -0.8319 O   0  0  0  0  0  0  0  0  0  0  0  0
   -0.9937    0.0914    0.2908 C   0  0  0  0  0  0  0  0  0  0  0  0
    0.0607    0.4906    1.3454 C   0  0  0  0  0  0  0  0  0  0  0  0
   -1.7848    1.3262   -0.1454 C   0  0  0  0  0  0  0  0  0  0  0  0
   -0.8247    2.3710   -0.7178 C   0  0  0  0  0  0  0  0  0  0  0  0
   -1.9434   -0.9552    0.8767 C   0  0  0  0  0  0  0  0  0  0  0  0
   -2.9613   -1.3724   -0.1866 C   0  0  0  0  0  0  0  0  0  0  0  0
    1.9002   -0.1742   -1.8448 C   0  0  0  0  0  0  0  0  0  0  0  0
    1.5284   -1.8473   -0.0084 C   0  0  0  0  0  0  0  0  0  0  0  0
    2.7013    1.0226    1.9433 H   0  0  0  0  0  0  0  0  0  0  0  0
    1.4108    1.6066    0.0210 H   0  0  0  0  0  0  0  0  0  0  0  0
    0.1734   -0.2912    2.0965 H   0  0  0  0  0  0  0  0  0  0  0  0
   -0.1965    1.4424    1.8102 H   0  0  0  0  0  0  0  0  0  0  0  0
   -2.5098    1.0425   -0.9082 H   0  0  0  0  0  0  0  0  0  0  0  0
   -2.3073    1.7454    0.7144 H   0  0  0  0  0  0  0  0  0  0  0  0
   -0.1717    2.7370    0.0744 H   0  0  0  0  0  0  0  0  0  0  0  0
   -0.2222    1.9181   -1.5052 H   0  0  0  0  0  0  0  0  0  0  0  0
   -1.3964    3.2023   -1.1305 H   0  0  0  0  0  0  0  0  0  0  0  0
   -1.3718   -1.8273    1.1944 H   0  0  0  0  0  0  0  0  0  0  0  0
   -2.4665   -0.5317    1.7341 H   0  0  0  0  0  0  0  0  0  0  0  0
   -3.6037   -0.5251   -0.4269 H   0  0  0  0  0  0  0  0  0  0  0  0
   -2.4361   -1.6964   -1.0851 H   0  0  0  0  0  0  0  0  0  0  0  0
   -3.5695   -2.1927    0.1945 H   0  0  0  0  0  0  0  0  0  0  0  0
    2.9642   -0.1210   -1.6139 H   0  0  0  0  0  0  0  0  0  0  0  0
    1.7265   -0.9616   -2.5783 H   0  0  0  0  0  0  0  0  0  0  0  0
    1.5686    0.7810   -2.2518 H   0  0  0  0  0  0  0  0  0  0  0  0
    0.9349   -2.0706    0.8782 H   0  0  0  0  0  0  0  0  0  0  0  0
    1.3588   -2.6161   -0.7622 H   0  0  0  0  0  0  0  0  0  0  0  0
    2.5852   -1.8262    0.2578 H   0  0  0  0  0  0  0  0  0  0  0  0
  1  2  1  0  0  0  0
  2  3  1  0  0  0  0
  3  4  1  0  0  0  0
  4  5  1  0  0  0  0
  5  6  1  0  0  0  0
  2  6  1  0  0  0  0
  5  7  1  0  0  0  0
  7  8  1  0  0  0  0
  5  9  1  0  0  0  0
  9 10  1  0  0  0  0
  3 11  1  0  0  0  0
  3 12  1  0  0  0  0
  1 13  1  0  0  0  0
  2 14  1  0  0  0  0
  6 15  1  0  0  0  0
  6 16  1  0  0  0  0
  7 17  1  0  0  0  0
  7 18  1  0  0  0  0
  8 19  1  0  0  0  0
  8 20  1  0  0  0  0
  8 21  1  0  0  0  0
  9 22  1  0  0  0  0
  9 23  1  0  0  0  0
 10 24  1  0  0  0  0
 10 25  1  0  0  0  0
 10 26  1  0  0  0  0
 11 27  1  0  0  0  0
 11 28  1  0  0  0  0
 11 29  1  0  0  0  0
 12 30  1  0  0  0  0
 12 31  1  0  0  0  0
 12 32  1  0  0  0  0
M  END
$$$$
