C6H12O2
APtclcactv12211716583D 0   0.00000     0.00000
 
 20 20  0  0  0  0  0  0  0  0999 V2000
   -0.5997    1.9688   -0.0144 O   0  0  0  0  0  0  0  0  0  0  0  0
    0.0684    0.8415    0.5556 C   0  0  0  0  0  0  0  0  0  0  0  0
   -0.5216   -0.4709    0.0040 C   0  0  0  0  0  0  0  0  0  0  0  0
    0.5248   -1.1381   -0.7214 O   0  0  0  0  0  0  0  0  0  0  0  0
    1.7773   -0.7031   -0.1500 C   0  0  0  0  0  0  0  0  0  0  0  0
    1.5507    0.8079    0.1103 C   0  0  0  0  0  0  0  0  0  0  0  0
   -0.9979   -1.3533    1.1595 C   0  0  0  0  0  0  0  0  0  0  0  0
   -1.6899   -0.1621   -0.9344 C   0  0  0  0  0  0  0  0  0  0  0  0
   -0.2683    2.8218    0.2979 H   0  0  0  0  0  0  0  0  0  0  0  0
   -0.0050    0.8655    1.6429 H   0  0  0  0  0  0  0  0  0  0  0  0
    1.9758   -1.2280    0.7845 H   0  0  0  0  0  0  0  0  0  0  0  0
    2.5939   -0.8526   -0.8563 H   0  0  0  0  0  0  0  0  0  0  0  0
    1.6958    1.3859   -0.8024 H   0  0  0  0  0  0  0  0  0  0  0  0
    2.2039    1.1680    0.9051 H   0  0  0  0  0  0  0  0  0  0  0  0
   -1.7638   -0.8256    1.7279 H   0  0  0  0  0  0  0  0  0  0  0  0
   -1.4137   -2.2792    0.7621 H   0  0  0  0  0  0  0  0  0  0  0  0
   -0.1555   -1.5838    1.8118 H   0  0  0  0  0  0  0  0  0  0  0  0
   -1.3374    0.4505   -1.7641 H   0  0  0  0  0  0  0  0  0  0  0  0
   -2.1020   -1.0945   -1.3205 H   0  0  0  0  0  0  0  0  0  0  0  0
   -2.4627    0.3775   -0.3870 H   0  0  0  0  0  0  0  0  0  0  0  0
  1  2  1  0  0  0  0
  2  3  1  0  0  0  0
  3  4  1  0  0  0  0
  4  5  1  0  0  0  0
  5  6  1  0  0  0  0
  2  6  1  0  0  0  0
  3  7  1  0  0  0  0
  3  8  1  0  0  0  0
  1  9  1  0  0  0  0
  2 10  1  0  0  0  0
  5 11  1  0  0  0  0
  5 12  1  0  0  0  0
  6 13  1  0  0  0  0
  6 14  1  0  0  0  0
  7 15  1  0  0  0  0
  7 16  1  0  0  0  0
  7 17  1  0  0  0  0
  8 18  1  0  0  0  0
  8 19  1  0  0  0  0
  8 20  1  0  0  0  0
M  END
$$$$
