C9H18O2
APtclcactv12151716523D 0   0.00000     0.00000
 
 29 29  0  0  0  0  0  0  0  0999 V2000
   -0.8172   -2.0384    0.1758 O   0  0  0  0  0  0  0  0  0  0  0  0
   -0.6762   -0.8862   -0.6575 C   0  0  0  0  0  0  0  0  0  0  0  0
   -1.2547    0.3729    0.0370 C   0  0  0  0  0  0  0  0  0  0  0  0
   -0.1937    0.7850    0.9253 O   0  0  0  0  0  0  0  0  0  0  0  0
    1.0424    0.6065    0.2137 C   0  0  0  0  0  0  0  0  0  0  0  0
    0.8149   -0.5065   -0.8276 C   0  0  0  0  0  0  0  0  0  0  0  0
    1.7113   -1.7100   -0.5297 C   0  0  0  0  0  0  0  0  0  0  0  0
    1.4293    1.9078   -0.4918 C   0  0  0  0  0  0  0  0  0  0  0  0
    2.1474    0.1905    1.1868 C   0  0  0  0  0  0  0  0  0  0  0  0
   -1.5522    1.4665   -0.9908 C   0  0  0  0  0  0  0  0  0  0  0  0
   -2.5146    0.0198    0.8301 C   0  0  0  0  0  0  0  0  0  0  0  0
   -1.7343   -2.2626    0.3852 H   0  0  0  0  0  0  0  0  0  0  0  0
   -1.1498   -1.0484   -1.6258 H   0  0  0  0  0  0  0  0  0  0  0  0
    1.0006   -0.1311   -1.8340 H   0  0  0  0  0  0  0  0  0  0  0  0
    1.4790   -2.0995    0.4615 H   0  0  0  0  0  0  0  0  0  0  0  0
    1.5373   -2.4861   -1.2750 H   0  0  0  0  0  0  0  0  0  0  0  0
    2.7563   -1.4019   -0.5632 H   0  0  0  0  0  0  0  0  0  0  0  0
    1.6631    2.6690    0.2526 H   0  0  0  0  0  0  0  0  0  0  0  0
    2.3025    1.7344   -1.1207 H   0  0  0  0  0  0  0  0  0  0  0  0
    0.5980    2.2471   -1.1097 H   0  0  0  0  0  0  0  0  0  0  0  0
    1.8604   -0.7333    1.6891 H   0  0  0  0  0  0  0  0  0  0  0  0
    3.0751    0.0319    0.6368 H   0  0  0  0  0  0  0  0  0  0  0  0
    2.2941    0.9765    1.9276 H   0  0  0  0  0  0  0  0  0  0  0  0
   -2.4500    1.2045   -1.5506 H   0  0  0  0  0  0  0  0  0  0  0  0
   -1.7082    2.4152   -0.4772 H   0  0  0  0  0  0  0  0  0  0  0  0
   -0.7103    1.5590   -1.6769 H   0  0  0  0  0  0  0  0  0  0  0  0
   -2.2694   -0.7215    1.5906 H   0  0  0  0  0  0  0  0  0  0  0  0
   -2.9052    0.9172    1.3100 H   0  0  0  0  0  0  0  0  0  0  0  0
   -3.2668   -0.3876    0.1546 H   0  0  0  0  0  0  0  0  0  0  0  0
  1  2  1  0  0  0  0
  2  3  1  0  0  0  0
  3  4  1  0  0  0  0
  4  5  1  0  0  0  0
  5  6  1  0  0  0  0
  2  6  1  0  0  0  0
  6  7  1  0  0  0  0
  5  8  1  0  0  0  0
  5  9  1  0  0  0  0
  3 10  1  0  0  0  0
  3 11  1  0  0  0  0
  1 12  1  0  0  0  0
  2 13  1  0  0  0  0
  6 14  1  0  0  0  0
  7 15  1  0  0  0  0
  7 16  1  0  0  0  0
  7 17  1  0  0  0  0
  8 18  1  0  0  0  0
  8 19  1  0  0  0  0
  8 20  1  0  0  0  0
  9 21  1  0  0  0  0
  9 22  1  0  0  0  0
  9 23  1  0  0  0  0
 10 24  1  0  0  0  0
 10 25  1  0  0  0  0
 10 26  1  0  0  0  0
 11 27  1  0  0  0  0
 11 28  1  0  0  0  0
 11 29  1  0  0  0  0
M  END
$$$$
