C10H20O2
APtclcactv12211717303D 0   0.00000     0.00000
 
 32 32  0  0  0  0  0  0  0  0999 V2000
    3.1585   -0.3059    0.6334 O   0  0  0  0  0  0  0  0  0  0  0  0
    1.9423    0.3524    0.2733 C   0  0  0  0  0  0  0  0  0  0  0  0
    1.6103    0.1322   -1.2241 C   0  0  0  0  0  0  0  0  0  0  0  0
    0.1835    0.2707   -1.3162 O   0  0  0  0  0  0  0  0  0  0  0  0
   -0.4187   -0.0154   -0.0485 C   0  0  0  0  0  0  0  0  0  0  0  0
    0.7184   -0.3239    0.9491 C   0  0  0  0  0  0  0  0  0  0  0  0
   -1.2164    1.1981    0.4329 C   0  0  0  0  0  0  0  0  0  0  0  0
   -0.2832    2.4038    0.5610 C   0  0  0  0  0  0  0  0  0  0  0  0
   -2.3224    1.5142   -0.5759 C   0  0  0  0  0  0  0  0  0  0  0  0
   -1.3420   -1.2289   -0.1745 C   0  0  0  0  0  0  0  0  0  0  0  0
   -0.5372   -2.4331   -0.6674 C   0  0  0  0  0  0  0  0  0  0  0  0
   -1.9533   -1.5485    1.1912 C   0  0  0  0  0  0  0  0  0  0  0  0
    3.9352    0.0127    0.1535 H   0  0  0  0  0  0  0  0  0  0  0  0
    1.9874    1.4146    0.5136 H   0  0  0  0  0  0  0  0  0  0  0  0
    2.1040    0.8871   -1.8360 H   0  0  0  0  0  0  0  0  0  0  0  0
    1.9144   -0.8670   -1.5361 H   0  0  0  0  0  0  0  0  0  0  0  0
    0.8717   -1.3990    1.0423 H   0  0  0  0  0  0  0  0  0  0  0  0
    0.5145    0.1256    1.9209 H   0  0  0  0  0  0  0  0  0  0  0  0
   -1.6617    0.9786    1.4033 H   0  0  0  0  0  0  0  0  0  0  0  0
   -0.8516    3.2684    0.9039 H   0  0  0  0  0  0  0  0  0  0  0  0
    0.5047    2.1786    1.2797 H   0  0  0  0  0  0  0  0  0  0  0  0
    0.1620    2.6233   -0.4094 H   0  0  0  0  0  0  0  0  0  0  0  0
   -2.9873    0.6553   -0.6672 H   0  0  0  0  0  0  0  0  0  0  0  0
   -2.8908    2.3788   -0.2330 H   0  0  0  0  0  0  0  0  0  0  0  0
   -1.8772    1.7337   -1.5463 H   0  0  0  0  0  0  0  0  0  0  0  0
   -2.1376   -1.0077   -0.8859 H   0  0  0  0  0  0  0  0  0  0  0  0
   -0.0206   -2.1715   -1.5909 H   0  0  0  0  0  0  0  0  0  0  0  0
    0.1937   -2.7164    0.0900 H   0  0  0  0  0  0  0  0  0  0  0  0
   -1.2112   -3.2694   -0.8526 H   0  0  0  0  0  0  0  0  0  0  0  0
   -2.5267   -0.6906    1.5424 H   0  0  0  0  0  0  0  0  0  0  0  0
   -2.6111   -2.4130    1.1014 H   0  0  0  0  0  0  0  0  0  0  0  0
   -1.1577   -1.7697    1.9026 H   0  0  0  0  0  0  0  0  0  0  0  0
  1  2  1  0  0  0  0
  2  3  1  0  0  0  0
  3  4  1  0  0  0  0
  4  5  1  0  0  0  0
  5  6  1  0  0  0  0
  2  6  1  0  0  0  0
  5  7  1  0  0  0  0
  7  8  1  0  0  0  0
  7  9  1  0  0  0  0
  5 10  1  0  0  0  0
 10 11  1  0  0  0  0
 10 12  1  0  0  0  0
  1 13  1  0  0  0  0
  2 14  1  0  0  0  0
  3 15  1  0  0  0  0
  3 16  1  0  0  0  0
  6 17  1  0  0  0  0
  6 18  1  0  0  0  0
  7 19  1  0  0  0  0
  8 20  1  0  0  0  0
  8 21  1  0  0  0  0
  8 22  1  0  0  0  0
  9 23  1  0  0  0  0
  9 24  1  0  0  0  0
  9 25  1  0  0  0  0
 10 26  1  0  0  0  0
 11 27  1  0  0  0  0
 11 28  1  0  0  0  0
 11 29  1  0  0  0  0
 12 30  1  0  0  0  0
 12 31  1  0  0  0  0
 12 32  1  0  0  0  0
M  END
$$$$
