C9H18O2
APtclcactv12151716523D 0   0.00000     0.00000
 
 29 29  0  0  0  0  0  0  0  0999 V2000
    1.2657    2.2382    0.4384 O   0  0  0  0  0  0  0  0  0  0  0  0
    0.8118    1.2827   -0.5224 C   0  0  0  0  0  0  0  0  0  0  0  0
    0.9273   -0.1465    0.0421 C   0  0  0  0  0  0  0  0  0  0  0  0
   -0.3920   -0.7171    0.0339 O   0  0  0  0  0  0  0  0  0  0  0  0
   -1.3263    0.3799    0.1240 C   0  0  0  0  0  0  0  0  0  0  0  0
   -0.7019    1.4628   -0.7924 C   0  0  0  0  0  0  0  0  0  0  0  0
   -2.7019   -0.0397   -0.3979 C   0  0  0  0  0  0  0  0  0  0  0  0
   -3.2990   -1.0981    0.5317 C   0  0  0  0  0  0  0  0  0  0  0  0
    1.8601   -0.9800   -0.8389 C   0  0  0  0  0  0  0  0  0  0  0  0
    1.9681   -2.3963   -0.2703 C   0  0  0  0  0  0  0  0  0  0  0  0
    1.4645   -0.0985    1.4739 C   0  0  0  0  0  0  0  0  0  0  0  0
    1.2151    3.1551    0.1354 H   0  0  0  0  0  0  0  0  0  0  0  0
    1.3800    1.3744   -1.4481 H   0  0  0  0  0  0  0  0  0  0  0  0
   -1.3975    0.7401    1.1503 H   0  0  0  0  0  0  0  0  0  0  0  0
   -1.0335    2.4589   -0.4992 H   0  0  0  0  0  0  0  0  0  0  0  0
   -0.9361    1.2688   -1.8391 H   0  0  0  0  0  0  0  0  0  0  0  0
   -3.3593    0.8292   -0.4289 H   0  0  0  0  0  0  0  0  0  0  0  0
   -2.5992   -0.4536   -1.4010 H   0  0  0  0  0  0  0  0  0  0  0  0
   -3.4017   -0.6842    1.5349 H   0  0  0  0  0  0  0  0  0  0  0  0
   -4.2790   -1.3971    0.1599 H   0  0  0  0  0  0  0  0  0  0  0  0
   -2.6416   -1.9670    0.5627 H   0  0  0  0  0  0  0  0  0  0  0  0
    1.4597   -1.0246   -1.8517 H   0  0  0  0  0  0  0  0  0  0  0  0
    2.8482   -0.5202   -0.8588 H   0  0  0  0  0  0  0  0  0  0  0  0
    2.3685   -2.3517    0.7425 H   0  0  0  0  0  0  0  0  0  0  0  0
    0.9800   -2.8561   -0.2505 H   0  0  0  0  0  0  0  0  0  0  0  0
    2.6326   -2.9901   -0.8979 H   0  0  0  0  0  0  0  0  0  0  0  0
    0.7841    0.4808    2.0980 H   0  0  0  0  0  0  0  0  0  0  0  0
    1.5436   -1.1123    1.8665 H   0  0  0  0  0  0  0  0  0  0  0  0
    2.4486    0.3702    1.4772 H   0  0  0  0  0  0  0  0  0  0  0  0
  1  2  1  0  0  0  0
  2  3  1  0  0  0  0
  3  4  1  0  0  0  0
  4  5  1  0  0  0  0
  5  6  1  0  0  0  0
  2  6  1  0  0  0  0
  5  7  1  0  0  0  0
  7  8  1  0  0  0  0
  3  9  1  0  0  0  0
  9 10  1  0  0  0  0
  3 11  1  0  0  0  0
  1 12  1  0  0  0  0
  2 13  1  0  0  0  0
  5 14  1  0  0  0  0
  6 15  1  0  0  0  0
  6 16  1  0  0  0  0
  7 17  1  0  0  0  0
  7 18  1  0  0  0  0
  8 19  1  0  0  0  0
  8 20  1  0  0  0  0
  8 21  1  0  0  0  0
  9 22  1  0  0  0  0
  9 23  1  0  0  0  0
 10 24  1  0  0  0  0
 10 25  1  0  0  0  0
 10 26  1  0  0  0  0
 11 27  1  0  0  0  0
 11 28  1  0  0  0  0
 11 29  1  0  0  0  0
M  END
$$$$
