C11H22O2
APtclcactv12111704493D 0   0.00000     0.00000
 
 35 35  0  0  0  0  0  0  0  0999 V2000
    0.6437    2.7675    0.8112 O   0  0  0  0  0  0  0  0  0  0  0  0
    0.1589    1.6610    0.0479 C   0  0  0  0  0  0  0  0  0  0  0  0
    0.8013    0.3325    0.5203 C   0  0  0  0  0  0  0  0  0  0  0  0
   -0.1445   -0.6886    0.1651 O   0  0  0  0  0  0  0  0  0  0  0  0
   -1.4587   -0.1267    0.0704 C   0  0  0  0  0  0  0  0  0  0  0  0
   -1.3399    1.3872    0.3488 C   0  0  0  0  0  0  0  0  0  0  0  0
   -2.0203   -0.3536   -1.3346 C   0  0  0  0  0  0  0  0  0  0  0  0
   -1.1026    0.3093   -2.3638 C   0  0  0  0  0  0  0  0  0  0  0  0
   -2.3764   -0.7749    1.1089 C   0  0  0  0  0  0  0  0  0  0  0  0
   -2.4589   -2.2802    0.8478 C   0  0  0  0  0  0  0  0  0  0  0  0
    2.1304    0.0993   -0.2008 C   0  0  0  0  0  0  0  0  0  0  0  0
    2.8070   -1.1495    0.3681 C   0  0  0  0  0  0  0  0  0  0  0  0
    4.1362   -1.3826   -0.3529 C   0  0  0  0  0  0  0  0  0  0  0  0
    0.2687    3.6198    0.5502 H   0  0  0  0  0  0  0  0  0  0  0  0
    0.3237    1.8198   -1.0178 H   0  0  0  0  0  0  0  0  0  0  0  0
    0.9532    0.3485    1.5996 H   0  0  0  0  0  0  0  0  0  0  0  0
   -1.5734    1.6096    1.3900 H   0  0  0  0  0  0  0  0  0  0  0  0
   -1.9810    1.9568   -0.3239 H   0  0  0  0  0  0  0  0  0  0  0  0
   -2.0775   -1.4235   -1.5346 H   0  0  0  0  0  0  0  0  0  0  0  0
   -3.0169    0.0825   -1.4023 H   0  0  0  0  0  0  0  0  0  0  0  0
   -1.1331    1.3912   -2.2343 H   0  0  0  0  0  0  0  0  0  0  0  0
   -0.0816   -0.0449   -2.2217 H   0  0  0  0  0  0  0  0  0  0  0  0
   -1.4393    0.0540   -3.3686 H   0  0  0  0  0  0  0  0  0  0  0  0
   -1.9753   -0.6008    2.1074 H   0  0  0  0  0  0  0  0  0  0  0  0
   -3.3726   -0.3385    1.0364 H   0  0  0  0  0  0  0  0  0  0  0  0
   -2.9576   -2.4569   -0.1052 H   0  0  0  0  0  0  0  0  0  0  0  0
   -1.4530   -2.6989    0.8146 H   0  0  0  0  0  0  0  0  0  0  0  0
   -3.0247   -2.7573    1.6480 H   0  0  0  0  0  0  0  0  0  0  0  0
    1.9462   -0.0406   -1.2659 H   0  0  0  0  0  0  0  0  0  0  0  0
    2.7794    0.9627   -0.0546 H   0  0  0  0  0  0  0  0  0  0  0  0
    2.9912   -1.0096    1.4333 H   0  0  0  0  0  0  0  0  0  0  0  0
    2.1580   -2.0129    0.2220 H   0  0  0  0  0  0  0  0  0  0  0  0
    3.9520   -1.5225   -1.4181 H   0  0  0  0  0  0  0  0  0  0  0  0
    4.7852   -0.5192   -0.2068 H   0  0  0  0  0  0  0  0  0  0  0  0
    4.6182   -2.2723    0.0524 H   0  0  0  0  0  0  0  0  0  0  0  0
  1  2  1  0  0  0  0
  2  3  1  0  0  0  0
  3  4  1  0  0  0  0
  4  5  1  0  0  0  0
  5  6  1  0  0  0  0
  2  6  1  0  0  0  0
  5  7  1  0  0  0  0
  7  8  1  0  0  0  0
  5  9  1  0  0  0  0
  9 10  1  0  0  0  0
  3 11  1  0  0  0  0
 11 12  1  0  0  0  0
 12 13  1  0  0  0  0
  1 14  1  0  0  0  0
  2 15  1  0  0  0  0
  3 16  1  0  0  0  0
  6 17  1  0  0  0  0
  6 18  1  0  0  0  0
  7 19  1  0  0  0  0
  7 20  1  0  0  0  0
  8 21  1  0  0  0  0
  8 22  1  0  0  0  0
  8 23  1  0  0  0  0
  9 24  1  0  0  0  0
  9 25  1  0  0  0  0
 10 26  1  0  0  0  0
 10 27  1  0  0  0  0
 10 28  1  0  0  0  0
 11 29  1  0  0  0  0
 11 30  1  0  0  0  0
 12 31  1  0  0  0  0
 12 32  1  0  0  0  0
 13 33  1  0  0  0  0
 13 34  1  0  0  0  0
 13 35  1  0  0  0  0
M  END
$$$$
