C6H6INO3S
APtclcactv12211716523D 0   0.00000     0.00000
 
 18 18  0  0  0  0  0  0  0  0999 V2000
   -1.1887    1.2645    0.0030 I   0  0  0  0  0  0  0  0  0  0  0  0
    0.7182    0.3968   -0.0043 C   0  0  0  0  0  0  0  0  0  0  0  0
    1.8422    1.2003    0.0149 C   0  0  0  0  0  0  0  0  0  0  0  0
    3.1058    0.6240    0.0101 C   0  0  0  0  0  0  0  0  0  0  0  0
    4.2441    1.4332    0.0300 N   0  0  0  0  0  0  0  0  0  0  0  0
    3.2351   -0.7591   -0.0141 C   0  0  0  0  0  0  0  0  0  0  0  0
    2.1079   -1.5564   -0.0333 C   0  0  0  0  0  0  0  0  0  0  0  0
    0.8508   -0.9799   -0.0226 C   0  0  0  0  0  0  0  0  0  0  0  0
   -0.5849   -2.0011   -0.0465 S   0  0  0  0  0  0  0  0  0  0  0  0
   -0.9989   -2.0797   -1.4036 O   0  0  0  0  0  0  0  0  0  0  0  0
   -0.2773   -3.1442    0.7397 O   0  0  0  0  0  0  0  0  0  0  0  0
   -1.6828   -1.2522    0.6951 O   0  0  0  0  0  0  0  0  0  0  0  0
    1.7383    2.2752    0.0334 H   0  0  0  0  0  0  0  0  0  0  0  0
    4.1526    2.3987    0.0472 H   0  0  0  0  0  0  0  0  0  0  0  0
    5.1262    1.0296    0.0266 H   0  0  0  0  0  0  0  0  0  0  0  0
    4.2164   -1.2102   -0.0183 H   0  0  0  0  0  0  0  0  0  0  0  0
    2.2080   -2.6316   -0.0524 H   0  0  0  0  0  0  0  0  0  0  0  0
   -2.5227   -1.7294    0.7409 H   0  0  0  0  0  0  0  0  0  0  0  0
  1  2  1  0  0  0  0
  2  3  1  0  0  0  0
  3  4  2  0  0  0  0
  4  5  1  0  0  0  0
  4  6  1  0  0  0  0
  6  7  2  0  0  0  0
  7  8  1  0  0  0  0
  2  8  2  0  0  0  0
  8  9  1  0  0  0  0
  9 10  2  0  0  0  0
  9 11  2  0  0  0  0
  9 12  1  0  0  0  0
  3 13  1  0  0  0  0
  5 14  1  0  0  0  0
  5 15  1  0  0  0  0
  6 16  1  0  0  0  0
  7 17  1  0  0  0  0
 12 18  1  0  0  0  0
M  END
$$$$
