C7H4INS
APtclcactv12151716123D 0   0.00000     0.00000
 
 14 14  0  0  0  0  0  0  0  0999 V2000
   -2.5431    0.2255   -0.0001 I   0  0  0  0  0  0  0  0  0  0  0  0
   -0.5323   -0.3628   -0.0008 C   0  0  0  0  0  0  0  0  0  0  0  0
    0.4513    0.5826   -0.0000 C   0  0  0  0  0  0  0  0  0  0  0  0
    1.8108    0.1798   -0.0001 C   0  0  0  0  0  0  0  0  0  0  0  0
    2.1257   -1.2033   -0.0010 C   0  0  0  0  0  0  0  0  0  0  0  0
    1.1201   -2.1240   -0.0018 C   0  0  0  0  0  0  0  0  0  0  0  0
   -0.2073   -1.7139    0.0036 C   0  0  0  0  0  0  0  0  0  0  0  0
    2.7773    1.0862    0.0003 N   0  0  0  0  0  0  0  0  0  0  0  0
    3.9737    0.7241    0.0002 C   0  0  0  0  0  0  0  0  0  0  0  0
    5.4607    0.2741    0.0001 S   0  0  0  0  0  0  0  0  0  0  0  0
    0.1959    1.6320    0.0003 H   0  0  0  0  0  0  0  0  0  0  0  0
    3.1566   -1.5253   -0.0014 H   0  0  0  0  0  0  0  0  0  0  0  0
    1.3567   -3.1778   -0.0025 H   0  0  0  0  0  0  0  0  0  0  0  0
   -0.9949   -2.4529    0.0029 H   0  0  0  0  0  0  0  0  0  0  0  0
  1  2  1  0  0  0  0
  2  3  1  0  0  0  0
  3  4  2  0  0  0  0
  4  5  1  0  0  0  0
  5  6  2  0  0  0  0
  6  7  1  0  0  0  0
  2  7  2  0  0  0  0
  4  8  1  0  0  0  0
  8  9  2  0  0  0  0
  9 10  2  0  0  0  0
  3 11  1  0  0  0  0
  5 12  1  0  0  0  0
  6 13  1  0  0  0  0
  7 14  1  0  0  0  0
M  END
$$$$
