C10H22
APtclcactv12211717313D 0   0.00000     0.00000
 
 32 31  0  0  0  0  0  0  0  0999 V2000
   -2.3597    1.4631   -0.4556 C   0  0  0  0  0  0  0  0  0  0  0  0
   -2.2520    0.0940    0.2190 C   0  0  0  0  0  0  0  0  0  0  0  0
   -3.4697   -0.7547   -0.1522 C   0  0  0  0  0  0  0  0  0  0  0  0
   -4.7328   -0.1157    0.4283 C   0  0  0  0  0  0  0  0  0  0  0  0
   -0.9775   -0.6084   -0.2534 C   0  0  0  0  0  0  0  0  0  0  0  0
    0.2451    0.1765    0.2261 C   0  0  0  0  0  0  0  0  0  0  0  0
    1.5196   -0.5260   -0.2463 C   0  0  0  0  0  0  0  0  0  0  0  0
    2.7422    0.2589    0.2333 C   0  0  0  0  0  0  0  0  0  0  0  0
    4.0167   -0.4436   -0.2392 C   0  0  0  0  0  0  0  0  0  0  0  0
    5.2394    0.3413    0.2404 C   0  0  0  0  0  0  0  0  0  0  0  0
   -2.3960    1.3332   -1.5372 H   0  0  0  0  0  0  0  0  0  0  0  0
   -3.2677    1.9635   -0.1190 H   0  0  0  0  0  0  0  0  0  0  0  0
   -1.4922    2.0677   -0.1912 H   0  0  0  0  0  0  0  0  0  0  0  0
   -2.2157    0.2239    1.3007 H   0  0  0  0  0  0  0  0  0  0  0  0
   -3.5565   -0.8105   -1.2373 H   0  0  0  0  0  0  0  0  0  0  0  0
   -3.3504   -1.7588    0.2549 H   0  0  0  0  0  0  0  0  0  0  0  0
   -5.6003   -0.7203    0.1639 H   0  0  0  0  0  0  0  0  0  0  0  0
   -4.6460   -0.0599    1.5134 H   0  0  0  0  0  0  0  0  0  0  0  0
   -4.8521    0.8884    0.0212 H   0  0  0  0  0  0  0  0  0  0  0  0
   -0.9454   -1.6176    0.1572 H   0  0  0  0  0  0  0  0  0  0  0  0
   -0.9727   -0.6589   -1.3422 H   0  0  0  0  0  0  0  0  0  0  0  0
    0.2130    1.1857   -0.1845 H   0  0  0  0  0  0  0  0  0  0  0  0
    0.2404    0.2269    1.3150 H   0  0  0  0  0  0  0  0  0  0  0  0
    1.5517   -1.5352    0.1643 H   0  0  0  0  0  0  0  0  0  0  0  0
    1.5244   -0.5765   -1.3351 H   0  0  0  0  0  0  0  0  0  0  0  0
    2.7101    1.2681   -0.1774 H   0  0  0  0  0  0  0  0  0  0  0  0
    2.7375    0.3093    1.3221 H   0  0  0  0  0  0  0  0  0  0  0  0
    4.0488   -1.4528    0.1715 H   0  0  0  0  0  0  0  0  0  0  0  0
    4.0215   -0.4940   -1.3280 H   0  0  0  0  0  0  0  0  0  0  0  0
    6.1473   -0.1591   -0.0962 H   0  0  0  0  0  0  0  0  0  0  0  0
    5.2072    1.3505   -0.1703 H   0  0  0  0  0  0  0  0  0  0  0  0
    5.2346    0.3918    1.3292 H   0  0  0  0  0  0  0  0  0  0  0  0
  1  2  1  0  0  0  0
  2  3  1  0  0  0  0
  3  4  1  0  0  0  0
  2  5  1  0  0  0  0
  5  6  1  0  0  0  0
  6  7  1  0  0  0  0
  7  8  1  0  0  0  0
  8  9  1  0  0  0  0
  9 10  1  0  0  0  0
  1 11  1  0  0  0  0
  1 12  1  0  0  0  0
  1 13  1  0  0  0  0
  2 14  1  0  0  0  0
  3 15  1  0  0  0  0
  3 16  1  0  0  0  0
  4 17  1  0  0  0  0
  4 18  1  0  0  0  0
  4 19  1  0  0  0  0
  5 20  1  0  0  0  0
  5 21  1  0  0  0  0
  6 22  1  0  0  0  0
  6 23  1  0  0  0  0
  7 24  1  0  0  0  0
  7 25  1  0  0  0  0
  8 26  1  0  0  0  0
  8 27  1  0  0  0  0
  9 28  1  0  0  0  0
  9 29  1  0  0  0  0
 10 30  1  0  0  0  0
 10 31  1  0  0  0  0
 10 32  1  0  0  0  0
M  END
$$$$
