C16H34
APtclcactv12211717353D 0   0.00000     0.00000
 
 50 49  0  0  0  0  0  0  0  0999 V2000
    5.9504    1.4172    0.6671 C   0  0  0  0  0  0  0  0  0  0  0  0
    5.8595    0.1669   -0.2100 C   0  0  0  0  0  0  0  0  0  0  0  0
    7.0902   -0.7113    0.0247 C   0  0  0  0  0  0  0  0  0  0  0  0
    8.3423    0.0274   -0.4520 C   0  0  0  0  0  0  0  0  0  0  0  0
    4.5966   -0.6181    0.1502 C   0  0  0  0  0  0  0  0  0  0  0  0
    3.3615    0.2136   -0.2014 C   0  0  0  0  0  0  0  0  0  0  0  0
    2.0986   -0.5713    0.1588 C   0  0  0  0  0  0  0  0  0  0  0  0
    0.8635    0.2604   -0.1928 C   0  0  0  0  0  0  0  0  0  0  0  0
   -0.3995   -0.5246    0.1674 C   0  0  0  0  0  0  0  0  0  0  0  0
   -1.6346    0.3071   -0.1842 C   0  0  0  0  0  0  0  0  0  0  0  0
   -2.8975   -0.4778    0.1760 C   0  0  0  0  0  0  0  0  0  0  0  0
   -4.1326    0.3539   -0.1756 C   0  0  0  0  0  0  0  0  0  0  0  0
   -5.3955   -0.4311    0.1846 C   0  0  0  0  0  0  0  0  0  0  0  0
   -6.6306    0.4006   -0.1670 C   0  0  0  0  0  0  0  0  0  0  0  0
   -7.8935   -0.3844    0.1933 C   0  0  0  0  0  0  0  0  0  0  0  0
   -9.1287    0.4474   -0.1584 C   0  0  0  0  0  0  0  0  0  0  0  0
    6.8501    1.9765    0.4105 H   0  0  0  0  0  0  0  0  0  0  0  0
    5.0736    2.0429    0.4998 H   0  0  0  0  0  0  0  0  0  0  0  0
    5.9922    1.1231    1.7158 H   0  0  0  0  0  0  0  0  0  0  0  0
    5.8177    0.4610   -1.2588 H   0  0  0  0  0  0  0  0  0  0  0  0
    7.1814   -0.9321    1.0882 H   0  0  0  0  0  0  0  0  0  0  0  0
    6.9836   -1.6424   -0.5319 H   0  0  0  0  0  0  0  0  0  0  0  0
    9.2191   -0.5982   -0.2848 H   0  0  0  0  0  0  0  0  0  0  0  0
    8.2511    0.2483   -1.5155 H   0  0  0  0  0  0  0  0  0  0  0  0
    8.4489    0.9585    0.1046 H   0  0  0  0  0  0  0  0  0  0  0  0
    4.5772   -1.5524   -0.4108 H   0  0  0  0  0  0  0  0  0  0  0  0
    4.5962   -0.8355    1.2183 H   0  0  0  0  0  0  0  0  0  0  0  0
    3.3809    1.1480    0.3596 H   0  0  0  0  0  0  0  0  0  0  0  0
    3.3619    0.4311   -1.2695 H   0  0  0  0  0  0  0  0  0  0  0  0
    2.0791   -1.5057   -0.4022 H   0  0  0  0  0  0  0  0  0  0  0  0
    2.0982   -0.7887    1.2269 H   0  0  0  0  0  0  0  0  0  0  0  0
    0.8829    1.1948    0.3682 H   0  0  0  0  0  0  0  0  0  0  0  0
    0.8638    0.4778   -1.2609 H   0  0  0  0  0  0  0  0  0  0  0  0
   -0.4189   -1.4589   -0.3936 H   0  0  0  0  0  0  0  0  0  0  0  0
   -0.3998   -0.7420    1.2355 H   0  0  0  0  0  0  0  0  0  0  0  0
   -1.6152    1.2415    0.3768 H   0  0  0  0  0  0  0  0  0  0  0  0
   -1.6342    0.5245   -1.2523 H   0  0  0  0  0  0  0  0  0  0  0  0
   -2.9169   -1.4122   -0.3849 H   0  0  0  0  0  0  0  0  0  0  0  0
   -2.8979   -0.6952    1.2441 H   0  0  0  0  0  0  0  0  0  0  0  0
   -4.1132    1.2882    0.3854 H   0  0  0  0  0  0  0  0  0  0  0  0
   -4.1322    0.5713   -1.2437 H   0  0  0  0  0  0  0  0  0  0  0  0
   -5.4149   -1.3655   -0.3763 H   0  0  0  0  0  0  0  0  0  0  0  0
   -5.3959   -0.6485    1.2527 H   0  0  0  0  0  0  0  0  0  0  0  0
   -6.6112    1.3350    0.3940 H   0  0  0  0  0  0  0  0  0  0  0  0
   -6.6302    0.6180   -1.2351 H   0  0  0  0  0  0  0  0  0  0  0  0
   -7.9130   -1.3187   -0.3677 H   0  0  0  0  0  0  0  0  0  0  0  0
   -7.8939   -0.6018    1.2614 H   0  0  0  0  0  0  0  0  0  0  0  0
  -10.0284   -0.1119    0.0983 H   0  0  0  0  0  0  0  0  0  0  0  0
   -9.1092    1.3817    0.4026 H   0  0  0  0  0  0  0  0  0  0  0  0
   -9.1283    0.6648   -1.2265 H   0  0  0  0  0  0  0  0  0  0  0  0
  1  2  1  0  0  0  0
  2  3  1  0  0  0  0
  3  4  1  0  0  0  0
  2  5  1  0  0  0  0
  5  6  1  0  0  0  0
  6  7  1  0  0  0  0
  7  8  1  0  0  0  0
  8  9  1  0  0  0  0
  9 10  1  0  0  0  0
 10 11  1  0  0  0  0
 11 12  1  0  0  0  0
 12 13  1  0  0  0  0
 13 14  1  0  0  0  0
 14 15  1  0  0  0  0
 15 16  1  0  0  0  0
  1 17  1  0  0  0  0
  1 18  1  0  0  0  0
  1 19  1  0  0  0  0
  2 20  1  0  0  0  0
  3 21  1  0  0  0  0
  3 22  1  0  0  0  0
  4 23  1  0  0  0  0
  4 24  1  0  0  0  0
  4 25  1  0  0  0  0
  5 26  1  0  0  0  0
  5 27  1  0  0  0  0
  6 28  1  0  0  0  0
  6 29  1  0  0  0  0
  7 30  1  0  0  0  0
  7 31  1  0  0  0  0
  8 32  1  0  0  0  0
  8 33  1  0  0  0  0
  9 34  1  0  0  0  0
  9 35  1  0  0  0  0
 10 36  1  0  0  0  0
 10 37  1  0  0  0  0
 11 38  1  0  0  0  0
 11 39  1  0  0  0  0
 12 40  1  0  0  0  0
 12 41  1  0  0  0  0
 13 42  1  0  0  0  0
 13 43  1  0  0  0  0
 14 44  1  0  0  0  0
 14 45  1  0  0  0  0
 15 46  1  0  0  0  0
 15 47  1  0  0  0  0
 16 48  1  0  0  0  0
 16 49  1  0  0  0  0
 16 50  1  0  0  0  0
M  END
$$$$
