C8H8O3
APtclcactv12151716293D 0   0.00000     0.00000
 
 19 19  0  0  0  0  0  0  0  0999 V2000
    3.8042   -0.5104   -0.0008 C   0  0  0  0  0  0  0  0  0  0  0  0
    2.5036   -1.1024   -0.0005 O   0  0  0  0  0  0  0  0  0  0  0  0
    1.4404   -0.2558   -0.0007 C   0  0  0  0  0  0  0  0  0  0  0  0
    0.1518   -0.7630   -0.0004 C   0  0  0  0  0  0  0  0  0  0  0  0
   -0.9369    0.1099   -0.0007 C   0  0  0  0  0  0  0  0  0  0  0  0
   -2.3147   -0.4233    0.0001 C   0  0  0  0  0  0  0  0  0  0  0  0
   -2.5015   -1.6235    0.0009 O   0  0  0  0  0  0  0  0  0  0  0  0
   -3.3639    0.4216   -0.0001 O   0  0  0  0  0  0  0  0  0  0  0  0
   -0.7191    1.4893   -0.0011 C   0  0  0  0  0  0  0  0  0  0  0  0
    0.5688    1.9835   -0.0014 C   0  0  0  0  0  0  0  0  0  0  0  0
    1.6467    1.1170    0.0046 C   0  0  0  0  0  0  0  0  0  0  0  0
    3.9221    0.1081    0.8890 H   0  0  0  0  0  0  0  0  0  0  0  0
    4.5606   -1.2953   -0.0005 H   0  0  0  0  0  0  0  0  0  0  0  0
    3.9220    0.1074   -0.8910 H   0  0  0  0  0  0  0  0  0  0  0  0
   -0.0100   -1.8309   -0.0004 H   0  0  0  0  0  0  0  0  0  0  0  0
   -4.2462    0.0260    0.0004 H   0  0  0  0  0  0  0  0  0  0  0  0
   -1.5586    2.1688   -0.0017 H   0  0  0  0  0  0  0  0  0  0  0  0
    0.7359    3.0505   -0.0018 H   0  0  0  0  0  0  0  0  0  0  0  0
    2.6527    1.5098    0.0047 H   0  0  0  0  0  0  0  0  0  0  0  0
  1  2  1  0  0  0  0
  2  3  1  0  0  0  0
  3  4  1  0  0  0  0
  4  5  2  0  0  0  0
  5  6  1  0  0  0  0
  6  7  2  0  0  0  0
  6  8  1  0  0  0  0
  5  9  1  0  0  0  0
  9 10  2  0  0  0  0
 10 11  1  0  0  0  0
  3 11  2  0  0  0  0
  1 12  1  0  0  0  0
  1 13  1  0  0  0  0
  1 14  1  0  0  0  0
  4 15  1  0  0  0  0
  8 16  1  0  0  0  0
  9 17  1  0  0  0  0
 10 18  1  0  0  0  0
 11 19  1  0  0  0  0
M  END
$$$$
