C10H15N3O2S2
APtclcactv12211717253D 0   0.00000     0.00000
 
 32 32  0  0  0  0  0  0  0  0999 V2000
  -12.6835    0.6563    0.1003 S   0  0  0  0  0  0  0  0  0  0  0  0
  -12.5840   -1.1282    0.5028 C   0  0  0  0  0  0  0  0  0  0  0  0
  -11.2775   -1.5022   -0.0659 N   0  0  0  0  0  0  0  0  0  0  0  0
  -10.6007   -0.4669   -0.6725 C   0  0  0  0  0  0  0  0  0  0  0  0
  -11.1105    0.7454   -0.7214 C   0  0  0  0  0  0  0  0  0  0  0  0
    4.1212    3.3570   -0.1002 C   0  0  0  0  0  0  0  0  0  0  0  0
    4.1748    1.8956    0.2639 C   0  0  0  0  0  0  0  0  0  0  0  0
    5.2925    1.1384   -0.0623 C   0  0  0  0  0  0  0  0  0  0  0  0
    5.3379   -0.2085    0.2757 C   0  0  0  0  0  0  0  0  0  0  0  0
    6.7537   -1.1736   -0.1352 S   0  0  0  0  0  0  0  0  0  0  0  0
    7.8853   -0.4289    0.2940 O   0  0  0  0  0  0  0  0  0  0  0  0
    6.4801   -2.4959    0.3074 O   0  0  0  0  0  0  0  0  0  0  0  0
    6.8379   -1.2415   -1.7876 N   0  0  0  0  0  0  0  0  0  0  0  0
    4.2726   -0.7897    0.9343 C   0  0  0  0  0  0  0  0  0  0  0  0
    3.1609   -0.0329    1.2572 C   0  0  0  0  0  0  0  0  0  0  0  0
    3.1148    1.3091    0.9274 C   0  0  0  0  0  0  0  0  0  0  0  0
    6.3682    1.7294   -0.7289 N   0  0  0  0  0  0  0  0  0  0  0  0
  -12.5968   -1.2842    1.5815 H   0  0  0  0  0  0  0  0  0  0  0  0
  -13.3900   -1.6807    0.0199 H   0  0  0  0  0  0  0  0  0  0  0  0
  -10.9226   -2.4036   -0.0169 H   0  0  0  0  0  0  0  0  0  0  0  0
   -9.6339   -0.6535   -1.1162 H   0  0  0  0  0  0  0  0  0  0  0  0
  -10.6624    1.6194   -1.1705 H   0  0  0  0  0  0  0  0  0  0  0  0
    3.6816    3.4686   -1.0914 H   0  0  0  0  0  0  0  0  0  0  0  0
    3.5126    3.8912    0.6294 H   0  0  0  0  0  0  0  0  0  0  0  0
    5.1307    3.7682   -0.1020 H   0  0  0  0  0  0  0  0  0  0  0  0
    6.1692   -0.7904   -2.3263 H   0  0  0  0  0  0  0  0  0  0  0  0
    7.5560   -1.7325   -2.2169 H   0  0  0  0  0  0  0  0  0  0  0  0
    4.3073   -1.8366    1.1973 H   0  0  0  0  0  0  0  0  0  0  0  0
    2.3288   -0.4900    1.7720 H   0  0  0  0  0  0  0  0  0  0  0  0
    2.2452    1.8973    1.1809 H   0  0  0  0  0  0  0  0  0  0  0  0
    6.3352    2.6698   -0.9646 H   0  0  0  0  0  0  0  0  0  0  0  0
    7.1482    1.1995   -0.9561 H   0  0  0  0  0  0  0  0  0  0  0  0
  1  2  1  0  0  0  0
  2  3  1  0  0  0  0
  3  4  1  0  0  0  0
  4  5  2  0  0  0  0
  1  5  1  0  0  0  0
  6  7  1  0  0  0  0
  7  8  2  0  0  0  0
  8  9  1  0  0  0  0
  9 10  1  0  0  0  0
 10 11  2  0  0  0  0
 10 12  2  0  0  0  0
 10 13  1  0  0  0  0
  9 14  2  0  0  0  0
 14 15  1  0  0  0  0
 15 16  2  0  0  0  0
  7 16  1  0  0  0  0
  8 17  1  0  0  0  0
  2 18  1  0  0  0  0
  2 19  1  0  0  0  0
  3 20  1  0  0  0  0
  4 21  1  0  0  0  0
  5 22  1  0  0  0  0
  6 23  1  0  0  0  0
  6 24  1  0  0  0  0
  6 25  1  0  0  0  0
 13 26  1  0  0  0  0
 13 27  1  0  0  0  0
 14 28  1  0  0  0  0
 15 29  1  0  0  0  0
 16 30  1  0  0  0  0
 17 31  1  0  0  0  0
 17 32  1  0  0  0  0
M  END
$$$$
