C5H12O
APtclcactv12211716463D 0   0.00000     0.00000
 
 18 17  0  0  0  0  0  0  0  0999 V2000
    1.4839    1.2535   -0.0586 C   0  0  0  0  0  0  0  0  0  0  0  0
    0.7133   -0.0040    0.3485 C   0  0  0  0  0  0  0  0  0  0  0  0
   -0.6600   -0.0013   -0.3258 C   0  0  0  0  0  0  0  0  0  0  0  0
   -1.4306   -1.2589    0.0813 C   0  0  0  0  0  0  0  0  0  0  0  0
   -1.3893    1.1575    0.0833 O   0  0  0  0  0  0  0  0  0  0  0  0
    1.4941   -1.2447   -0.0896 C   0  0  0  0  0  0  0  0  0  0  0  0
    1.6106    1.2675   -1.1411 H   0  0  0  0  0  0  0  0  0  0  0  0
    0.9276    2.1374    0.2535 H   0  0  0  0  0  0  0  0  0  0  0  0
    2.4623    1.2516    0.4218 H   0  0  0  0  0  0  0  0  0  0  0  0
    0.5866   -0.0180    1.4310 H   0  0  0  0  0  0  0  0  0  0  0  0
   -0.5333    0.0126   -1.4083 H   0  0  0  0  0  0  0  0  0  0  0  0
   -2.4090   -1.2569   -0.3991 H   0  0  0  0  0  0  0  0  0  0  0  0
   -0.8743   -2.1428   -0.2308 H   0  0  0  0  0  0  0  0  0  0  0  0
   -1.5573   -1.2728    1.1638 H   0  0  0  0  0  0  0  0  0  0  0  0
   -2.2717    1.2248   -0.3064 H   0  0  0  0  0  0  0  0  0  0  0  0
    2.4726   -1.2467    0.3908 H   0  0  0  0  0  0  0  0  0  0  0  0
    0.9452   -2.1407    0.2004 H   0  0  0  0  0  0  0  0  0  0  0  0
    1.6209   -1.2308   -1.1721 H   0  0  0  0  0  0  0  0  0  0  0  0
  1  2  1  0  0  0  0
  2  3  1  0  0  0  0
  3  4  1  0  0  0  0
  3  5  1  0  0  0  0
  2  6  1  0  0  0  0
  1  7  1  0  0  0  0
  1  8  1  0  0  0  0
  1  9  1  0  0  0  0
  2 10  1  0  0  0  0
  3 11  1  0  0  0  0
  4 12  1  0  0  0  0
  4 13  1  0  0  0  0
  4 14  1  0  0  0  0
  5 15  1  0  0  0  0
  6 16  1  0  0  0  0
  6 17  1  0  0  0  0
  6 18  1  0  0  0  0
M  END
$$$$
