C9H11ClO
APtclcactv12151716453D 0   0.00000     0.00000
 
 22 22  0  0  0  0  0  0  0  0999 V2000
    0.0264    2.8132   -0.2763 C   0  0  0  0  0  0  0  0  0  0  0  0
    0.4367    1.3734   -0.1039 C   0  0  0  0  0  0  0  0  0  0  0  0
    1.7730    1.0259   -0.1521 C   0  0  0  0  0  0  0  0  0  0  0  0
    2.1502   -0.2994    0.0071 C   0  0  0  0  0  0  0  0  0  0  0  0
    1.1843   -1.2735    0.2145 C   0  0  0  0  0  0  0  0  0  0  0  0
   -0.1506   -0.9221    0.2621 C   0  0  0  0  0  0  0  0  0  0  0  0
   -0.5245    0.4014    0.1083 C   0  0  0  0  0  0  0  0  0  0  0  0
   -2.2029    0.8406    0.1691 Cl  0  0  0  0  0  0  0  0  0  0  0  0
   -1.2001   -1.9799    0.4874 C   0  0  0  0  0  0  0  0  0  0  0  0
   -1.7483   -2.4499   -0.8615 C   0  0  0  0  0  0  0  0  0  0  0  0
    3.4643   -0.6433   -0.0405 O   0  0  0  0  0  0  0  0  0  0  0  0
   -0.1462    3.0178   -1.3329 H   0  0  0  0  0  0  0  0  0  0  0  0
   -0.8896    2.9996    0.2843 H   0  0  0  0  0  0  0  0  0  0  0  0
    0.8183    3.4636    0.0950 H   0  0  0  0  0  0  0  0  0  0  0  0
    2.5234    1.7855   -0.3141 H   0  0  0  0  0  0  0  0  0  0  0  0
    1.4761   -2.3060    0.3383 H   0  0  0  0  0  0  0  0  0  0  0  0
   -0.7569   -2.8251    1.0139 H   0  0  0  0  0  0  0  0  0  0  0  0
   -2.0119   -1.5648    1.0848 H   0  0  0  0  0  0  0  0  0  0  0  0
   -2.1915   -1.6046   -1.3880 H   0  0  0  0  0  0  0  0  0  0  0  0
   -0.9365   -2.8649   -1.4589 H   0  0  0  0  0  0  0  0  0  0  0  0
   -2.5074   -3.2149   -0.6985 H   0  0  0  0  0  0  0  0  0  0  0  0
    3.9084   -0.6198    0.8182 H   0  0  0  0  0  0  0  0  0  0  0  0
  1  2  1  0  0  0  0
  2  3  1  0  0  0  0
  3  4  2  0  0  0  0
  4  5  1  0  0  0  0
  5  6  2  0  0  0  0
  6  7  1  0  0  0  0
  2  7  2  0  0  0  0
  7  8  1  0  0  0  0
  6  9  1  0  0  0  0
  9 10  1  0  0  0  0
  4 11  1  0  0  0  0
  1 12  1  0  0  0  0
  1 13  1  0  0  0  0
  1 14  1  0  0  0  0
  3 15  1  0  0  0  0
  5 16  1  0  0  0  0
  9 17  1  0  0  0  0
  9 18  1  0  0  0  0
 10 19  1  0  0  0  0
 10 20  1  0  0  0  0
 10 21  1  0  0  0  0
 11 22  1  0  0  0  0
M  END
$$$$
