C7H16
APtclcactv12151716233D 0   0.00000     0.00000
 
 23 22  0  0  0  0  0  0  0  0999 V2000
   -0.6937    1.5030   -0.2806 C   0  0  0  0  0  0  0  0  0  0  0  0
   -0.5533    0.0703    0.2378 C   0  0  0  0  0  0  0  0  0  0  0  0
   -1.7059   -0.7812   -0.2983 C   0  0  0  0  0  0  0  0  0  0  0  0
   -3.0282   -0.2702    0.2773 C   0  0  0  0  0  0  0  0  0  0  0  0
    0.7777   -0.5158   -0.2372 C   0  0  0  0  0  0  0  0  0  0  0  0
    1.9327    0.2600    0.3993 C   0  0  0  0  0  0  0  0  0  0  0  0
    3.2638   -0.3262   -0.0757 C   0  0  0  0  0  0  0  0  0  0  0  0
    0.1274    2.1097    0.1014 H   0  0  0  0  0  0  0  0  0  0  0  0
   -0.6665    1.4994   -1.3702 H   0  0  0  0  0  0  0  0  0  0  0  0
   -1.6420    1.9206    0.0578 H   0  0  0  0  0  0  0  0  0  0  0  0
   -0.5805    0.0739    1.3275 H   0  0  0  0  0  0  0  0  0  0  0  0
   -1.7326   -0.7132   -1.3858 H   0  0  0  0  0  0  0  0  0  0  0  0
   -1.5582   -1.8199   -0.0027 H   0  0  0  0  0  0  0  0  0  0  0  0
   -3.1758    0.7685   -0.0183 H   0  0  0  0  0  0  0  0  0  0  0  0
   -3.8493   -0.8769   -0.1046 H   0  0  0  0  0  0  0  0  0  0  0  0
   -3.0015   -0.3383    1.3649 H   0  0  0  0  0  0  0  0  0  0  0  0
    0.8386   -1.5638    0.0563 H   0  0  0  0  0  0  0  0  0  0  0  0
    0.8423   -0.4380   -1.3225 H   0  0  0  0  0  0  0  0  0  0  0  0
    1.8718    1.3080    0.1059 H   0  0  0  0  0  0  0  0  0  0  0  0
    1.8681    0.1822    1.4846 H   0  0  0  0  0  0  0  0  0  0  0  0
    3.3246   -1.3741    0.2177 H   0  0  0  0  0  0  0  0  0  0  0  0
    3.3283   -0.2484   -1.1610 H   0  0  0  0  0  0  0  0  0  0  0  0
    4.0866    0.2265    0.3778 H   0  0  0  0  0  0  0  0  0  0  0  0
  1  2  1  0  0  0  0
  2  3  1  0  0  0  0
  3  4  1  0  0  0  0
  2  5  1  0  0  0  0
  5  6  1  0  0  0  0
  6  7  1  0  0  0  0
  1  8  1  0  0  0  0
  1  9  1  0  0  0  0
  1 10  1  0  0  0  0
  2 11  1  0  0  0  0
  3 12  1  0  0  0  0
  3 13  1  0  0  0  0
  4 14  1  0  0  0  0
  4 15  1  0  0  0  0
  4 16  1  0  0  0  0
  5 17  1  0  0  0  0
  5 18  1  0  0  0  0
  6 19  1  0  0  0  0
  6 20  1  0  0  0  0
  7 21  1  0  0  0  0
  7 22  1  0  0  0  0
  7 23  1  0  0  0  0
M  END
$$$$
