C6H14O
APtclcactv12211717003D 0   0.00000     0.00000
 
 21 20  0  0  0  0  0  0  0  0999 V2000
    0.2731    1.2513   -0.8838 C   0  0  0  0  0  0  0  0  0  0  0  0
    0.2794    0.3377    0.3434 C   0  0  0  0  0  0  0  0  0  0  0  0
   -1.0703   -0.3741    0.4562 C   0  0  0  0  0  0  0  0  0  0  0  0
   -2.1844    0.6647    0.5994 C   0  0  0  0  0  0  0  0  0  0  0  0
   -1.2961   -1.1559   -0.7185 O   0  0  0  0  0  0  0  0  0  0  0  0
    1.3935   -0.7012    0.2002 C   0  0  0  0  0  0  0  0  0  0  0  0
    2.7518    0.0028    0.2128 C   0  0  0  0  0  0  0  0  0  0  0  0
    1.2346    1.7584   -0.9641 H   0  0  0  0  0  0  0  0  0  0  0  0
    0.1009    0.6550   -1.7798 H   0  0  0  0  0  0  0  0  0  0  0  0
   -0.5206    1.9914   -0.7818 H   0  0  0  0  0  0  0  0  0  0  0  0
    0.4516    0.9340    1.2395 H   0  0  0  0  0  0  0  0  0  0  0  0
   -1.0658   -1.0250    1.3305 H   0  0  0  0  0  0  0  0  0  0  0  0
   -2.1888    1.3156   -0.2749 H   0  0  0  0  0  0  0  0  0  0  0  0
   -3.1459    0.1576    0.6797 H   0  0  0  0  0  0  0  0  0  0  0  0
   -2.0121    1.2610    1.4954 H   0  0  0  0  0  0  0  0  0  0  0  0
   -1.3127   -0.6407   -1.5366 H   0  0  0  0  0  0  0  0  0  0  0  0
    1.3418   -1.4060    1.0300 H   0  0  0  0  0  0  0  0  0  0  0  0
    1.2710   -1.2379   -0.7406 H   0  0  0  0  0  0  0  0  0  0  0  0
    2.8035    0.7077   -0.6170 H   0  0  0  0  0  0  0  0  0  0  0  0
    2.8743    0.5395    1.1535 H   0  0  0  0  0  0  0  0  0  0  0  0
    3.5455   -0.7373    0.1107 H   0  0  0  0  0  0  0  0  0  0  0  0
  1  2  1  0  0  0  0
  2  3  1  0  0  0  0
  3  4  1  0  0  0  0
  3  5  1  0  0  0  0
  2  6  1  0  0  0  0
  6  7  1  0  0  0  0
  1  8  1  0  0  0  0
  1  9  1  0  0  0  0
  1 10  1  0  0  0  0
  2 11  1  0  0  0  0
  3 12  1  0  0  0  0
  4 13  1  0  0  0  0
  4 14  1  0  0  0  0
  4 15  1  0  0  0  0
  5 16  1  0  0  0  0
  6 17  1  0  0  0  0
  6 18  1  0  0  0  0
  7 19  1  0  0  0  0
  7 20  1  0  0  0  0
  7 21  1  0  0  0  0
M  END
$$$$
