C10H6FN3O3
APtclcactv12151716543D 0   0.00000     0.00000
 
 23 24  0  0  0  0  0  0  0  0999 V2000
   -0.3049    1.2535   -0.1329 C   0  0  0  0  0  0  0  0  0  0  0  0
   -1.5967    0.5403   -0.0719 C   0  0  0  0  0  0  0  0  0  0  0  0
   -2.3975    0.6182    1.0690 C   0  0  0  0  0  0  0  0  0  0  0  0
   -3.5490   -0.0182    1.1234 N   0  0  0  0  0  0  0  0  0  0  0  0
   -3.9908   -0.7469    0.1162 C   0  0  0  0  0  0  0  0  0  0  0  0
   -3.2567   -0.8744   -1.0497 C   0  0  0  0  0  0  0  0  0  0  0  0
   -2.0422   -0.2214   -1.1601 C   0  0  0  0  0  0  0  0  0  0  0  0
   -0.2835    2.4619   -0.2559 O   0  0  0  0  0  0  0  0  0  0  0  0
    0.8501    0.5644   -0.0466 N   0  0  0  0  0  0  0  0  0  0  0  0
    2.0228    1.2240   -0.0142 C   0  0  0  0  0  0  0  0  0  0  0  0
    3.1890    0.5585    0.0713 N   0  0  0  0  0  0  0  0  0  0  0  0
    3.2082   -0.8112    0.1279 C   0  0  0  0  0  0  0  0  0  0  0  0
    2.0448   -1.4976    0.0975 C   0  0  0  0  0  0  0  0  0  0  0  0
    0.8251   -0.7824    0.0125 C   0  0  0  0  0  0  0  0  0  0  0  0
   -0.2360   -1.3788   -0.0160 O   0  0  0  0  0  0  0  0  0  0  0  0
    2.0446   -2.8475    0.1519 F   0  0  0  0  0  0  0  0  0  0  0  0
    2.0285    2.4385   -0.0633 O   0  0  0  0  0  0  0  0  0  0  0  0
   -2.0696    1.2051    1.9142 H   0  0  0  0  0  0  0  0  0  0  0  0
   -4.9411   -1.2526    0.2034 H   0  0  0  0  0  0  0  0  0  0  0  0
   -3.6300   -1.4741   -1.8667 H   0  0  0  0  0  0  0  0  0  0  0  0
   -1.4487   -0.3035   -2.0586 H   0  0  0  0  0  0  0  0  0  0  0  0
    4.0237    1.0521    0.0927 H   0  0  0  0  0  0  0  0  0  0  0  0
    4.1482   -1.3387    0.1961 H   0  0  0  0  0  0  0  0  0  0  0  0
  1  2  1  0  0  0  0
  2  3  2  0  0  0  0
  3  4  1  0  0  0  0
  4  5  2  0  0  0  0
  5  6  1  0  0  0  0
  6  7  2  0  0  0  0
  2  7  1  0  0  0  0
  1  8  2  0  0  0  0
  1  9  1  0  0  0  0
  9 10  1  0  0  0  0
 10 11  1  0  0  0  0
 11 12  1  0  0  0  0
 12 13  2  0  0  0  0
 13 14  1  0  0  0  0
  9 14  1  0  0  0  0
 14 15  2  0  0  0  0
 13 16  1  0  0  0  0
 10 17  2  0  0  0  0
  3 18  1  0  0  0  0
  5 19  1  0  0  0  0
  6 20  1  0  0  0  0
  7 21  1  0  0  0  0
 11 22  1  0  0  0  0
 12 23  1  0  0  0  0
M  END
$$$$
