C7H5NO5
APtclcactv12151716143D 0   0.00000     0.00000
 
 18 18  0  0  0  0  0  0  0  0999 V2000
   -2.4985    0.3617   -0.0087 N   0  3  0  0  0  0  0  0  0  0  0  0
   -3.5436   -0.2637   -0.0052 O   0  0  0  0  0  0  0  0  0  0  0  0
   -2.5176    1.5795   -0.0111 O   0  5  0  0  0  0  0  0  0  0  0  0
   -1.2052   -0.3582   -0.0040 C   0  0  0  0  0  0  0  0  0  0  0  0
   -0.0159    0.3547   -0.0080 C   0  0  0  0  0  0  0  0  0  0  0  0
    1.2063   -0.3329   -0.0034 C   0  0  0  0  0  0  0  0  0  0  0  0
    2.4772    0.4138   -0.0071 C   0  0  0  0  0  0  0  0  0  0  0  0
    2.4679    1.6288   -0.0141 O   0  0  0  0  0  0  0  0  0  0  0  0
    3.6492   -0.2511   -0.0028 O   0  0  0  0  0  0  0  0  0  0  0  0
    1.2121   -1.7302    0.0051 C   0  0  0  0  0  0  0  0  0  0  0  0
    0.0204   -2.4222    0.0089 C   0  0  0  0  0  0  0  0  0  0  0  0
   -1.1846   -1.7390    0.0101 C   0  0  0  0  0  0  0  0  0  0  0  0
   -0.0345    1.7110   -0.0167 O   0  0  0  0  0  0  0  0  0  0  0  0
    4.4562    0.2817   -0.0054 H   0  0  0  0  0  0  0  0  0  0  0  0
    2.1492   -2.2671    0.0083 H   0  0  0  0  0  0  0  0  0  0  0  0
    0.0259   -3.5021    0.0152 H   0  0  0  0  0  0  0  0  0  0  0  0
   -2.1138   -2.2895    0.0135 H   0  0  0  0  0  0  0  0  0  0  0  0
   -0.0403    2.1099    0.8641 H   0  0  0  0  0  0  0  0  0  0  0  0
  1  2  2  0  0  0  0
  1  3  1  0  0  0  0
  1  4  1  0  0  0  0
  4  5  2  0  0  0  0
  5  6  1  0  0  0  0
  6  7  1  0  0  0  0
  7  8  2  0  0  0  0
  7  9  1  0  0  0  0
  6 10  2  0  0  0  0
 10 11  1  0  0  0  0
 11 12  2  0  0  0  0
  4 12  1  0  0  0  0
  5 13  1  0  0  0  0
  9 14  1  0  0  0  0
 10 15  1  0  0  0  0
 11 16  1  0  0  0  0
 12 17  1  0  0  0  0
 13 18  1  0  0  0  0
M  CHG  2   1   1   3  -1
M  END
$$$$
