C8H6N2O2S
APtclcactv12151716263D 0   0.00000     0.00000
 
 19 19  0  0  0  0  0  0  0  0999 V2000
    3.3829   -0.6139    0.2277 N   0  3  0  0  0  0  0  0  0  0  0  0
    3.4066   -1.8181    0.0467 O   0  0  0  0  0  0  0  0  0  0  0  0
    4.3897   -0.0328    0.5915 O   0  5  0  0  0  0  0  0  0  0  0  0
    2.1323    0.1444   -0.0003 C   0  0  0  0  0  0  0  0  0  0  0  0
    0.9911   -0.5143   -0.4188 C   0  0  0  0  0  0  0  0  0  0  0  0
   -0.1767    0.1938   -0.6317 C   0  0  0  0  0  0  0  0  0  0  0  0
   -1.4205   -0.5241   -1.0883 C   0  0  0  0  0  0  0  0  0  0  0  0
   -2.1882   -0.9622    0.0800 N   0  0  0  0  0  0  0  0  0  0  0  0
   -3.3572   -0.5529    0.2491 C   0  0  0  0  0  0  0  0  0  0  0  0
   -4.8099   -0.0443    0.4593 S   0  0  0  0  0  0  0  0  0  0  0  0
   -0.2038    1.5606   -0.4254 C   0  0  0  0  0  0  0  0  0  0  0  0
    0.9370    2.2190   -0.0067 C   0  0  0  0  0  0  0  0  0  0  0  0
    2.1040    1.5101    0.2105 C   0  0  0  0  0  0  0  0  0  0  0  0
    1.0121   -1.5820   -0.5796 H   0  0  0  0  0  0  0  0  0  0  0  0
   -2.0289    0.1504   -1.6907 H   0  0  0  0  0  0  0  0  0  0  0  0
   -1.1407   -1.3920   -1.6854 H   0  0  0  0  0  0  0  0  0  0  0  0
   -1.1162    2.1138   -0.5918 H   0  0  0  0  0  0  0  0  0  0  0  0
    0.9160    3.2868    0.1541 H   0  0  0  0  0  0  0  0  0  0  0  0
    2.9954    2.0246    0.5377 H   0  0  0  0  0  0  0  0  0  0  0  0
  1  2  2  0  0  0  0
  1  3  1  0  0  0  0
  1  4  1  0  0  0  0
  4  5  1  0  0  0  0
  5  6  2  0  0  0  0
  6  7  1  0  0  0  0
  7  8  1  0  0  0  0
  8  9  2  0  0  0  0
  9 10  2  0  0  0  0
  6 11  1  0  0  0  0
 11 12  2  0  0  0  0
 12 13  1  0  0  0  0
  4 13  2  0  0  0  0
  5 14  1  0  0  0  0
  7 15  1  0  0  0  0
  7 16  1  0  0  0  0
 11 17  1  0  0  0  0
 12 18  1  0  0  0  0
 13 19  1  0  0  0  0
M  CHG  2   1   1   3  -1
M  END
$$$$
