C9H12O2
APtclcactv12151716483D 0   0.00000     0.00000
 
 23 23  0  0  0  0  0  0  0  0999 V2000
   -2.2127   -0.1381    0.0022 C   0  0  0  0  0  0  0  0  0  0  0  0
   -3.5019    0.6858   -0.0001 C   0  0  0  0  0  0  0  0  0  0  0  0
   -4.7084   -0.2550    0.0115 C   0  0  0  0  0  0  0  0  0  0  0  0
   -1.0858    0.7406   -0.0086 O   0  0  0  0  0  0  0  0  0  0  0  0
    0.1453    0.1651   -0.0081 C   0  0  0  0  0  0  0  0  0  0  0  0
    1.2822    0.9588   -0.0182 C   0  0  0  0  0  0  0  0  0  0  0  0
    2.5365    0.3688   -0.0177 C   0  0  0  0  0  0  0  0  0  0  0  0
    2.6516   -1.0143   -0.0071 C   0  0  0  0  0  0  0  0  0  0  0  0
    1.5173   -1.8029    0.0030 C   0  0  0  0  0  0  0  0  0  0  0  0
    0.2657   -1.2171    0.0083 C   0  0  0  0  0  0  0  0  0  0  0  0
    3.6527    1.1440   -0.0281 O   0  0  0  0  0  0  0  0  0  0  0  0
   -2.1802   -0.7596    0.8971 H   0  0  0  0  0  0  0  0  0  0  0  0
   -2.1862   -0.7738   -0.8828 H   0  0  0  0  0  0  0  0  0  0  0  0
   -3.5284    1.3215    0.8849 H   0  0  0  0  0  0  0  0  0  0  0  0
   -3.5343    1.3073   -0.8950 H   0  0  0  0  0  0  0  0  0  0  0  0
   -4.6819   -0.8907   -0.8735 H   0  0  0  0  0  0  0  0  0  0  0  0
   -4.6760   -0.8765    0.9064 H   0  0  0  0  0  0  0  0  0  0  0  0
   -5.6268    0.3320    0.0098 H   0  0  0  0  0  0  0  0  0  0  0  0
    1.1906    2.0348   -0.0269 H   0  0  0  0  0  0  0  0  0  0  0  0
    3.6287   -1.4745   -0.0070 H   0  0  0  0  0  0  0  0  0  0  0  0
    1.6089   -2.8790    0.0113 H   0  0  0  0  0  0  0  0  0  0  0  0
   -0.6196   -1.8357    0.0166 H   0  0  0  0  0  0  0  0  0  0  0  0
    3.9788    1.3757    0.8522 H   0  0  0  0  0  0  0  0  0  0  0  0
  1  2  1  0  0  0  0
  2  3  1  0  0  0  0
  1  4  1  0  0  0  0
  4  5  1  0  0  0  0
  5  6  1  0  0  0  0
  6  7  2  0  0  0  0
  7  8  1  0  0  0  0
  8  9  2  0  0  0  0
  9 10  1  0  0  0  0
  5 10  2  0  0  0  0
  7 11  1  0  0  0  0
  1 12  1  0  0  0  0
  1 13  1  0  0  0  0
  2 14  1  0  0  0  0
  2 15  1  0  0  0  0
  3 16  1  0  0  0  0
  3 17  1  0  0  0  0
  3 18  1  0  0  0  0
  6 19  1  0  0  0  0
  8 20  1  0  0  0  0
  9 21  1  0  0  0  0
 10 22  1  0  0  0  0
 11 23  1  0  0  0  0
M  END
$$$$
