C14H12N2O4
APtclcactv12091702573D 0   0.00000     0.00000
 
 32 33  0  0  0  0  0  0  0  0999 V2000
    6.6919   -0.9169   -0.0695 C   0  0  0  0  0  0  0  0  0  0  0  0
    5.2730   -0.4096   -0.0490 C   0  0  0  0  0  0  0  0  0  0  0  0
    4.9801    0.7957    0.5622 C   0  0  0  0  0  0  0  0  0  0  0  0
    3.6808    1.2637    0.5823 C   0  0  0  0  0  0  0  0  0  0  0  0
    2.6680    0.5222   -0.0122 C   0  0  0  0  0  0  0  0  0  0  0  0
    1.3514    0.9934    0.0060 N   0  0  0  0  0  0  0  0  0  0  0  0
    0.3250    0.1230    0.0794 C   0  0  0  0  0  0  0  0  0  0  0  0
   -1.0637    0.6102   -0.0188 C   0  0  0  0  0  0  0  0  0  0  0  0
   -2.1341   -0.2914    0.0569 C   0  0  0  0  0  0  0  0  0  0  0  0
   -3.4359    0.1780   -0.0362 C   0  0  0  0  0  0  0  0  0  0  0  0
   -3.6747    1.5275   -0.2031 C   0  0  0  0  0  0  0  0  0  0  0  0
   -2.6194    2.4221   -0.2784 C   0  0  0  0  0  0  0  0  0  0  0  0
   -1.3200    1.9740   -0.1821 C   0  0  0  0  0  0  0  0  0  0  0  0
   -4.5706   -0.7692    0.0431 N   0  3  0  0  0  0  0  0  0  0  0  0
   -5.7141   -0.3578   -0.0385 O   0  0  0  0  0  0  0  0  0  0  0  0
   -4.3608   -1.9599    0.1900 O   0  5  0  0  0  0  0  0  0  0  0  0
   -1.8978   -1.6172    0.2200 O   0  0  0  0  0  0  0  0  0  0  0  0
    0.5439   -1.0641    0.2265 O   0  0  0  0  0  0  0  0  0  0  0  0
    2.9656   -0.6880   -0.6252 C   0  0  0  0  0  0  0  0  0  0  0  0
    4.2678   -1.1478   -0.6464 C   0  0  0  0  0  0  0  0  0  0  0  0
    6.8717   -1.5292    0.8142 H   0  0  0  0  0  0  0  0  0  0  0  0
    6.8504   -1.5169   -0.9656 H   0  0  0  0  0  0  0  0  0  0  0  0
    7.3800   -0.0716   -0.0718 H   0  0  0  0  0  0  0  0  0  0  0  0
    5.7681    1.3717    1.0245 H   0  0  0  0  0  0  0  0  0  0  0  0
    3.4526    2.2050    1.0601 H   0  0  0  0  0  0  0  0  0  0  0  0
    1.1769    1.9468   -0.0341 H   0  0  0  0  0  0  0  0  0  0  0  0
   -4.6902    1.8880   -0.2757 H   0  0  0  0  0  0  0  0  0  0  0  0
   -2.8163    3.4759   -0.4094 H   0  0  0  0  0  0  0  0  0  0  0  0
   -0.5005    2.6749   -0.2413 H   0  0  0  0  0  0  0  0  0  0  0  0
   -1.8544   -1.8982    1.1443 H   0  0  0  0  0  0  0  0  0  0  0  0
    2.1803   -1.2670   -1.0883 H   0  0  0  0  0  0  0  0  0  0  0  0
    4.4999   -2.0886   -1.1232 H   0  0  0  0  0  0  0  0  0  0  0  0
  1  2  1  0  0  0  0
  2  3  2  0  0  0  0
  3  4  1  0  0  0  0
  4  5  2  0  0  0  0
  5  6  1  0  0  0  0
  6  7  1  0  0  0  0
  7  8  1  0  0  0  0
  8  9  2  0  0  0  0
  9 10  1  0  0  0  0
 10 11  2  0  0  0  0
 11 12  1  0  0  0  0
 12 13  2  0  0  0  0
  8 13  1  0  0  0  0
 10 14  1  0  0  0  0
 14 15  2  0  0  0  0
 14 16  1  0  0  0  0
  9 17  1  0  0  0  0
  7 18  2  0  0  0  0
  5 19  1  0  0  0  0
 19 20  2  0  0  0  0
  2 20  1  0  0  0  0
  1 21  1  0  0  0  0
  1 22  1  0  0  0  0
  1 23  1  0  0  0  0
  3 24  1  0  0  0  0
  4 25  1  0  0  0  0
  6 26  1  0  0  0  0
 11 27  1  0  0  0  0
 12 28  1  0  0  0  0
 13 29  1  0  0  0  0
 17 30  1  0  0  0  0
 19 31  1  0  0  0  0
 20 32  1  0  0  0  0
M  CHG  2  14   1  16  -1
M  END
$$$$
