C5H4N2O4
APtclcactv12211716413D 0   0.00000     0.00000
 
 15 15  0  0  0  0  0  0  0  0999 V2000
    1.1193   -1.7484   -0.0003 N   0  0  0  0  0  0  0  0  0  0  0  0
    0.0215   -2.5277    0.0000 C   0  0  0  0  0  0  0  0  0  0  0  0
   -1.0484   -1.7803    0.0003 N   0  0  0  0  0  0  0  0  0  0  0  0
   -0.6907   -0.4856    0.0001 C   0  0  0  0  0  0  0  0  0  0  0  0
    0.6981   -0.4429   -0.0003 C   0  0  0  0  0  0  0  0  0  0  0  0
    1.5460    0.7600    0.0001 C   0  0  0  0  0  0  0  0  0  0  0  0
    1.0358    1.8630    0.0009 O   0  0  0  0  0  0  0  0  0  0  0  0
    2.8886    0.6383   -0.0003 O   0  0  0  0  0  0  0  0  0  0  0  0
   -1.6038    0.6764   -0.0002 C   0  0  0  0  0  0  0  0  0  0  0  0
   -1.1519    1.8038   -0.0008 O   0  0  0  0  0  0  0  0  0  0  0  0
   -2.9373    0.4852    0.0003 O   0  0  0  0  0  0  0  0  0  0  0  0
    2.0398   -2.0541    0.0030 H   0  0  0  0  0  0  0  0  0  0  0  0
    0.0256   -3.6077   -0.0002 H   0  0  0  0  0  0  0  0  0  0  0  0
    3.4036    1.4568   -0.0000 H   0  0  0  0  0  0  0  0  0  0  0  0
   -3.4942    1.2758    0.0001 H   0  0  0  0  0  0  0  0  0  0  0  0
  1  2  1  0  0  0  0
  2  3  2  0  0  0  0
  3  4  1  0  0  0  0
  4  5  2  0  0  0  0
  1  5  1  0  0  0  0
  5  6  1  0  0  0  0
  6  7  2  0  0  0  0
  6  8  1  0  0  0  0
  4  9  1  0  0  0  0
  9 10  2  0  0  0  0
  9 11  1  0  0  0  0
  1 12  1  0  0  0  0
  2 13  1  0  0  0  0
  8 14  1  0  0  0  0
 11 15  1  0  0  0  0
M  END
$$$$
