C8H8Cl2O2
APtclcactv12151716273D 0   0.00000     0.00000
 
 20 20  0  0  0  0  0  0  0  0999 V2000
   -2.4780    1.5586   -0.0015 Cl  0  0  0  0  0  0  0  0  0  0  0  0
   -0.9738    0.6921   -0.0015 C   0  0  0  0  0  0  0  0  0  0  0  0
    0.2233    1.3862   -0.0002 C   0  0  0  0  0  0  0  0  0  0  0  0
    1.4242    0.6959    0.0003 C   0  0  0  0  0  0  0  0  0  0  0  0
    1.4242   -0.6959   -0.0005 C   0  0  0  0  0  0  0  0  0  0  0  0
    0.2233   -1.3862   -0.0018 C   0  0  0  0  0  0  0  0  0  0  0  0
   -0.9737   -0.6921    0.0031 C   0  0  0  0  0  0  0  0  0  0  0  0
   -2.4780   -1.5587    0.0014 Cl  0  0  0  0  0  0  0  0  0  0  0  0
    2.6015   -1.3770   -0.0005 O   0  0  0  0  0  0  0  0  0  0  0  0
    2.5253   -2.8040   -0.0014 C   0  0  0  0  0  0  0  0  0  0  0  0
    2.6014    1.3771    0.0011 O   0  0  0  0  0  0  0  0  0  0  0  0
    2.5253    2.8040    0.0014 C   0  0  0  0  0  0  0  0  0  0  0  0
    0.2212    2.4662    0.0001 H   0  0  0  0  0  0  0  0  0  0  0  0
    0.2213   -2.4662   -0.0024 H   0  0  0  0  0  0  0  0  0  0  0  0
    1.9926   -3.1400    0.8882 H   0  0  0  0  0  0  0  0  0  0  0  0
    1.9932   -3.1389   -0.8917 H   0  0  0  0  0  0  0  0  0  0  0  0
    3.5322   -3.2216   -0.0013 H   0  0  0  0  0  0  0  0  0  0  0  0
    1.9933    3.1397   -0.8888 H   0  0  0  0  0  0  0  0  0  0  0  0
    1.9924    3.1393    0.8912 H   0  0  0  0  0  0  0  0  0  0  0  0
    3.5321    3.2216    0.0021 H   0  0  0  0  0  0  0  0  0  0  0  0
  1  2  1  0  0  0  0
  2  3  1  0  0  0  0
  3  4  2  0  0  0  0
  4  5  1  0  0  0  0
  5  6  2  0  0  0  0
  6  7  1  0  0  0  0
  2  7  2  0  0  0  0
  7  8  1  0  0  0  0
  5  9  1  0  0  0  0
  9 10  1  0  0  0  0
  4 11  1  0  0  0  0
 11 12  1  0  0  0  0
  3 13  1  0  0  0  0
  6 14  1  0  0  0  0
 10 15  1  0  0  0  0
 10 16  1  0  0  0  0
 10 17  1  0  0  0  0
 12 18  1  0  0  0  0
 12 19  1  0  0  0  0
 12 20  1  0  0  0  0
M  END
$$$$
