C6H7N7
APtclcactv12211716543D 0   0.00000     0.00000
 
 20 21  0  0  0  0  0  0  0  0999 V2000
    2.1898    2.1734   -0.0010 N   0  0  0  0  0  0  0  0  0  0  0  0
    1.8935    0.8254   -0.0006 C   0  0  0  0  0  0  0  0  0  0  0  0
    2.8599   -0.0834   -0.0004 N   0  0  0  0  0  0  0  0  0  0  0  0
    2.5888   -1.3779   -0.0000 C   0  0  0  0  0  0  0  0  0  0  0  0
    1.3637   -1.8490   -0.0003 N   0  0  0  0  0  0  0  0  0  0  0  0
    0.3129   -1.0168   -0.0006 C   0  0  0  0  0  0  0  0  0  0  0  0
   -0.9431   -1.4754   -0.0005 N   0  0  0  0  0  0  0  0  0  0  0  0
   -1.9503   -0.6227   -0.0002 C   0  0  0  0  0  0  0  0  0  0  0  0
   -1.7091    0.7714    0.0000 C   0  0  0  0  0  0  0  0  0  0  0  0
   -0.4750    1.2334   -0.0002 N   0  0  0  0  0  0  0  0  0  0  0  0
    0.5509    0.3774    0.0055 C   0  0  0  0  0  0  0  0  0  0  0  0
   -2.7784    1.6575   -0.0001 N   0  0  0  0  0  0  0  0  0  0  0  0
   -3.2514   -1.0954   -0.0005 N   0  0  0  0  0  0  0  0  0  0  0  0
    3.1143    2.4668   -0.0012 H   0  0  0  0  0  0  0  0  0  0  0  0
    1.4734    2.8274   -0.0053 H   0  0  0  0  0  0  0  0  0  0  0  0
    3.4113   -2.0778    0.0002 H   0  0  0  0  0  0  0  0  0  0  0  0
   -3.6878    1.3201   -0.0003 H   0  0  0  0  0  0  0  0  0  0  0  0
   -2.6158    2.6138    0.0000 H   0  0  0  0  0  0  0  0  0  0  0  0
   -3.4204   -2.0506   -0.0009 H   0  0  0  0  0  0  0  0  0  0  0  0
   -3.9941   -0.4715   -0.0003 H   0  0  0  0  0  0  0  0  0  0  0  0
  1  2  1  0  0  0  0
  2  3  2  0  0  0  0
  3  4  1  0  0  0  0
  4  5  2  0  0  0  0
  5  6  1  0  0  0  0
  6  7  2  0  0  0  0
  7  8  1  0  0  0  0
  8  9  2  0  0  0  0
  9 10  1  0  0  0  0
 10 11  2  0  0  0  0
  2 11  1  0  0  0  0
  6 11  1  0  0  0  0
  9 12  1  0  0  0  0
  8 13  1  0  0  0  0
  1 14  1  0  0  0  0
  1 15  1  0  0  0  0
  4 16  1  0  0  0  0
 12 17  1  0  0  0  0
 12 18  1  0  0  0  0
 13 19  1  0  0  0  0
 13 20  1  0  0  0  0
M  END
$$$$
