C6H6N6
APtclcactv12211716533D 0   0.00000     0.00000
 
 18 19  0  0  0  0  0  0  0  0999 V2000
    2.3552    1.8953   -0.0009 N   0  0  0  0  0  0  0  0  0  0  0  0
    1.7944    0.6361   -0.0005 C   0  0  0  0  0  0  0  0  0  0  0  0
    2.5577   -0.4488   -0.0005 N   0  0  0  0  0  0  0  0  0  0  0  0
    2.0318   -1.6625   -0.0002 C   0  0  0  0  0  0  0  0  0  0  0  0
    0.7374   -1.8790   -0.0003 N   0  0  0  0  0  0  0  0  0  0  0  0
   -0.1256   -0.8531   -0.0003 C   0  0  0  0  0  0  0  0  0  0  0  0
   -1.4464   -1.0474   -0.0004 N   0  0  0  0  0  0  0  0  0  0  0  0
   -2.2588   -0.0042   -0.0003 C   0  0  0  0  0  0  0  0  0  0  0  0
   -1.7421    1.3029   -0.0005 C   0  0  0  0  0  0  0  0  0  0  0  0
   -0.4456    1.5075   -0.0004 N   0  0  0  0  0  0  0  0  0  0  0  0
    0.3874    0.4668    0.0059 C   0  0  0  0  0  0  0  0  0  0  0  0
   -3.6291   -0.2009   -0.0004 N   0  0  0  0  0  0  0  0  0  0  0  0
    3.3199    1.9966   -0.0012 H   0  0  0  0  0  0  0  0  0  0  0  0
    1.7852    2.6801   -0.0048 H   0  0  0  0  0  0  0  0  0  0  0  0
    2.6973   -2.5132   -0.0003 H   0  0  0  0  0  0  0  0  0  0  0  0
   -2.4174    2.1458   -0.0011 H   0  0  0  0  0  0  0  0  0  0  0  0
   -3.9898   -1.1014   -0.0005 H   0  0  0  0  0  0  0  0  0  0  0  0
   -4.2285    0.5617   -0.0003 H   0  0  0  0  0  0  0  0  0  0  0  0
  1  2  1  0  0  0  0
  2  3  2  0  0  0  0
  3  4  1  0  0  0  0
  4  5  2  0  0  0  0
  5  6  1  0  0  0  0
  6  7  2  0  0  0  0
  7  8  1  0  0  0  0
  8  9  2  0  0  0  0
  9 10  1  0  0  0  0
 10 11  2  0  0  0  0
  2 11  1  0  0  0  0
  6 11  1  0  0  0  0
  8 12  1  0  0  0  0
  1 13  1  0  0  0  0
  1 14  1  0  0  0  0
  4 15  1  0  0  0  0
  9 16  1  0  0  0  0
 12 17  1  0  0  0  0
 12 18  1  0  0  0  0
M  END
$$$$
