C6H4N4O2
APtclcactv12211716503D 0   0.00000     0.00000
 
 16 17  0  0  0  0  0  0  0  0999 V2000
    2.3568    1.8538    0.0367 O   0  0  0  0  0  0  0  0  0  0  0  0
    1.8004    0.6209    0.0211 C   0  0  0  0  0  0  0  0  0  0  0  0
    2.5571   -0.4655    0.0180 N   0  0  0  0  0  0  0  0  0  0  0  0
    2.0260   -1.6776    0.0027 C   0  0  0  0  0  0  0  0  0  0  0  0
    0.7310   -1.8881   -0.0108 N   0  0  0  0  0  0  0  0  0  0  0  0
   -0.1261   -0.8581   -0.0091 C   0  0  0  0  0  0  0  0  0  0  0  0
   -1.4483   -1.0444   -0.0227 N   0  0  0  0  0  0  0  0  0  0  0  0
   -2.2535    0.0017   -0.0204 C   0  0  0  0  0  0  0  0  0  0  0  0
   -1.7315    1.3048   -0.0038 C   0  0  0  0  0  0  0  0  0  0  0  0
   -0.4339    1.5040    0.0096 N   0  0  0  0  0  0  0  0  0  0  0  0
    0.3943    0.4593    0.0134 C   0  0  0  0  0  0  0  0  0  0  0  0
   -3.5955   -0.1839   -0.0345 O   0  0  0  0  0  0  0  0  0  0  0  0
    2.5262    2.2200   -0.8421 H   0  0  0  0  0  0  0  0  0  0  0  0
    2.6877   -2.5311    0.0009 H   0  0  0  0  0  0  0  0  0  0  0  0
   -2.4031    2.1505   -0.0025 H   0  0  0  0  0  0  0  0  0  0  0  0
   -3.9933   -0.2460    0.8447 H   0  0  0  0  0  0  0  0  0  0  0  0
  1  2  1  0  0  0  0
  2  3  2  0  0  0  0
  3  4  1  0  0  0  0
  4  5  2  0  0  0  0
  5  6  1  0  0  0  0
  6  7  2  0  0  0  0
  7  8  1  0  0  0  0
  8  9  2  0  0  0  0
  9 10  1  0  0  0  0
 10 11  2  0  0  0  0
  2 11  1  0  0  0  0
  6 11  1  0  0  0  0
  8 12  1  0  0  0  0
  1 13  1  0  0  0  0
  4 14  1  0  0  0  0
  9 15  1  0  0  0  0
 12 16  1  0  0  0  0
M  END
$$$$
