C11H16O
APtclcactv12111704483D 0   0.00000     0.00000
 
 28 28  0  0  0  0  0  0  0  0999 V2000
    2.9731    0.7232    1.1020 C   0  0  0  0  0  0  0  0  0  0  0  0
    2.3456   -0.0001   -0.0913 C   0  0  0  0  0  0  0  0  0  0  0  0
    2.7334    0.7189   -1.3849 C   0  0  0  0  0  0  0  0  0  0  0  0
    2.8534   -1.4427   -0.1377 C   0  0  0  0  0  0  0  0  0  0  0  0
    0.8456    0.0001    0.0533 C   0  0  0  0  0  0  0  0  0  0  0  0
    0.1576    1.1973    0.1176 C   0  0  0  0  0  0  0  0  0  0  0  0
   -1.2184    1.1975    0.2503 C   0  0  0  0  0  0  0  0  0  0  0  0
   -1.9064    0.0004    0.3183 C   0  0  0  0  0  0  0  0  0  0  0  0
   -3.4064    0.0006    0.4635 C   0  0  0  0  0  0  0  0  0  0  0  0
   -4.0103   -0.0009   -0.8317 O   0  0  0  0  0  0  0  0  0  0  0  0
   -1.2185   -1.1968    0.2527 C   0  0  0  0  0  0  0  0  0  0  0  0
    0.1571   -1.1970    0.1161 C   0  0  0  0  0  0  0  0  0  0  0  0
    2.6114    1.7509    1.1351 H   0  0  0  0  0  0  0  0  0  0  0  0
    2.6969    0.2110    2.0236 H   0  0  0  0  0  0  0  0  0  0  0  0
    4.0581    0.7231    0.9974 H   0  0  0  0  0  0  0  0  0  0  0  0
    3.8184    0.7188   -1.4895 H   0  0  0  0  0  0  0  0  0  0  0  0
    2.2863    0.2036   -2.2351 H   0  0  0  0  0  0  0  0  0  0  0  0
    2.3717    1.7466   -1.3519 H   0  0  0  0  0  0  0  0  0  0  0  0
    2.5771   -1.9549    0.7839 H   0  0  0  0  0  0  0  0  0  0  0  0
    2.4063   -1.9580   -0.9878 H   0  0  0  0  0  0  0  0  0  0  0  0
    3.9383   -1.4428   -0.2423 H   0  0  0  0  0  0  0  0  0  0  0  0
    0.6951    2.1325    0.0645 H   0  0  0  0  0  0  0  0  0  0  0  0
   -1.7559    2.1328    0.3012 H   0  0  0  0  0  0  0  0  0  0  0  0
   -3.7185   -0.8888    1.0109 H   0  0  0  0  0  0  0  0  0  0  0  0
   -3.7185    0.8912    1.0088 H   0  0  0  0  0  0  0  0  0  0  0  0
   -4.9771   -0.0009   -0.8148 H   0  0  0  0  0  0  0  0  0  0  0  0
   -1.7560   -2.1321    0.3054 H   0  0  0  0  0  0  0  0  0  0  0  0
    0.6946   -2.1324    0.0648 H   0  0  0  0  0  0  0  0  0  0  0  0
  1  2  1  0  0  0  0
  2  3  1  0  0  0  0
  2  4  1  0  0  0  0
  2  5  1  0  0  0  0
  5  6  2  0  0  0  0
  6  7  1  0  0  0  0
  7  8  2  0  0  0  0
  8  9  1  0  0  0  0
  9 10  1  0  0  0  0
  8 11  1  0  0  0  0
 11 12  2  0  0  0  0
  5 12  1  0  0  0  0
  1 13  1  0  0  0  0
  1 14  1  0  0  0  0
  1 15  1  0  0  0  0
  3 16  1  0  0  0  0
  3 17  1  0  0  0  0
  3 18  1  0  0  0  0
  4 19  1  0  0  0  0
  4 20  1  0  0  0  0
  4 21  1  0  0  0  0
  6 22  1  0  0  0  0
  7 23  1  0  0  0  0
  9 24  1  0  0  0  0
  9 25  1  0  0  0  0
 10 26  1  0  0  0  0
 11 27  1  0  0  0  0
 12 28  1  0  0  0  0
M  END
$$$$
