C17H21N3O2
APtclcactv12211717373D 0   0.00000     0.00000
 
 43 44  0  0  0  0  0  0  0  0999 V2000
    3.1834    2.8594   -1.0414 O   0  0  0  0  0  0  0  0  0  0  0  0
    4.4262    2.4654   -0.4562 C   0  0  0  0  0  0  0  0  0  0  0  0
    4.1659    1.4497    0.6580 C   0  0  0  0  0  0  0  0  0  0  0  0
    3.6000    0.2273    0.0820 N   0  0  0  0  0  0  0  0  0  0  0  0
    2.2189    0.0639    0.0149 C   0  0  0  0  0  0  0  0  0  0  0  0
    1.6832   -1.0982   -0.5326 C   0  0  0  0  0  0  0  0  0  0  0  0
    0.3183   -1.2632   -0.6011 C   0  0  0  0  0  0  0  0  0  0  0  0
   -0.5307   -0.2612   -0.1190 C   0  0  0  0  0  0  0  0  0  0  0  0
    0.0118    0.9055    0.4312 C   0  0  0  0  0  0  0  0  0  0  0  0
    1.3774    1.0608    0.5009 C   0  0  0  0  0  0  0  0  0  0  0  0
   -1.8840   -0.4210   -0.1856 N   0  0  0  0  0  0  0  0  0  0  0  0
   -2.6653    0.5040    0.2594 N   0  0  0  0  0  0  0  0  0  0  0  0
   -4.0214    0.3440    0.1927 C   0  0  0  0  0  0  0  0  0  0  0  0
   -4.8709    1.3439    0.6738 C   0  0  0  0  0  0  0  0  0  0  0  0
   -6.2379    1.1756    0.6028 C   0  0  0  0  0  0  0  0  0  0  0  0
   -6.7688    0.0201    0.0568 C   0  0  0  0  0  0  0  0  0  0  0  0
   -5.9338   -0.9743   -0.4217 C   0  0  0  0  0  0  0  0  0  0  0  0
   -4.5648   -0.8178   -0.3621 C   0  0  0  0  0  0  0  0  0  0  0  0
   -0.2606   -2.5214   -1.1951 C   0  0  0  0  0  0  0  0  0  0  0  0
    4.4873   -0.8232   -0.4234 C   0  0  0  0  0  0  0  0  0  0  0  0
    4.8656   -1.7655    0.7211 C   0  0  0  0  0  0  0  0  0  0  0  0
    3.6965   -2.4423    1.1871 O   0  0  0  0  0  0  0  0  0  0  0  0
    3.2724    3.5038   -1.7569 H   0  0  0  0  0  0  0  0  0  0  0  0
    5.0599    2.0134   -1.2192 H   0  0  0  0  0  0  0  0  0  0  0  0
    4.9258    3.3405   -0.0407 H   0  0  0  0  0  0  0  0  0  0  0  0
    5.1037    1.2140    1.1611 H   0  0  0  0  0  0  0  0  0  0  0  0
    3.4637    1.8713    1.3772 H   0  0  0  0  0  0  0  0  0  0  0  0
    2.3393   -1.8712   -0.9045 H   0  0  0  0  0  0  0  0  0  0  0  0
   -0.6404    1.6814    0.8041 H   0  0  0  0  0  0  0  0  0  0  0  0
    1.7968    1.9610    0.9254 H   0  0  0  0  0  0  0  0  0  0  0  0
   -4.4580    2.2460    1.1005 H   0  0  0  0  0  0  0  0  0  0  0  0
   -6.8957    1.9473    0.9745 H   0  0  0  0  0  0  0  0  0  0  0  0
   -7.8401   -0.1063    0.0041 H   0  0  0  0  0  0  0  0  0  0  0  0
   -6.3552   -1.8734   -0.8465 H   0  0  0  0  0  0  0  0  0  0  0  0
   -3.9144   -1.5947   -0.7358 H   0  0  0  0  0  0  0  0  0  0  0  0
   -0.3934   -3.2660   -0.4102 H   0  0  0  0  0  0  0  0  0  0  0  0
   -1.2252   -2.2977   -1.6506 H   0  0  0  0  0  0  0  0  0  0  0  0
    0.4181   -2.9106   -1.9540 H   0  0  0  0  0  0  0  0  0  0  0  0
    3.9758   -1.3865   -1.2038 H   0  0  0  0  0  0  0  0  0  0  0  0
    5.3896   -0.3701   -0.8343 H   0  0  0  0  0  0  0  0  0  0  0  0
    5.5911   -2.4969    0.3649 H   0  0  0  0  0  0  0  0  0  0  0  0
    5.3014   -1.1893    1.5373 H   0  0  0  0  0  0  0  0  0  0  0  0
    3.8619   -3.0578    1.9144 H   0  0  0  0  0  0  0  0  0  0  0  0
  1  2  1  0  0  0  0
  2  3  1  0  0  0  0
  3  4  1  0  0  0  0
  4  5  1  0  0  0  0
  5  6  2  0  0  0  0
  6  7  1  0  0  0  0
  7  8  2  0  0  0  0
  8  9  1  0  0  0  0
  9 10  2  0  0  0  0
  5 10  1  0  0  0  0
  8 11  1  0  0  0  0
 11 12  2  0  0  0  0
 12 13  1  0  0  0  0
 13 14  2  0  0  0  0
 14 15  1  0  0  0  0
 15 16  2  0  0  0  0
 16 17  1  0  0  0  0
 17 18  2  0  0  0  0
 13 18  1  0  0  0  0
  7 19  1  0  0  0  0
  4 20  1  0  0  0  0
 20 21  1  0  0  0  0
 21 22  1  0  0  0  0
  1 23  1  0  0  0  0
  2 24  1  0  0  0  0
  2 25  1  0  0  0  0
  3 26  1  0  0  0  0
  3 27  1  0  0  0  0
  6 28  1  0  0  0  0
  9 29  1  0  0  0  0
 10 30  1  0  0  0  0
 14 31  1  0  0  0  0
 15 32  1  0  0  0  0
 16 33  1  0  0  0  0
 17 34  1  0  0  0  0
 18 35  1  0  0  0  0
 19 36  1  0  0  0  0
 19 37  1  0  0  0  0
 19 38  1  0  0  0  0
 20 39  1  0  0  0  0
 20 40  1  0  0  0  0
 21 41  1  0  0  0  0
 21 42  1  0  0  0  0
 22 43  1  0  0  0  0
M  END
$$$$
