C11H16N2O2
APtclcactv12211717353D 0   0.00000     0.00000
 
 31 31  0  0  0  0  0  0  0  0999 V2000
   -4.7459   -1.1452   -0.1976 C   0  0  0  0  0  0  0  0  0  0  0  0
   -4.9727   -2.2720    0.8122 C   0  0  0  0  0  0  0  0  0  0  0  0
   -3.5868   -0.3431    0.2158 N   0  0  0  0  0  0  0  0  0  0  0  0
   -3.3383    0.7509   -0.7326 C   0  0  0  0  0  0  0  0  0  0  0  0
   -2.1266    1.5620   -0.2694 C   0  0  0  0  0  0  0  0  0  0  0  0
   -0.9379    0.7298   -0.3230 O   0  0  0  0  0  0  0  0  0  0  0  0
    0.2241    1.2977    0.0556 C   0  0  0  0  0  0  0  0  0  0  0  0
    1.4714    0.5131    0.0271 C   0  0  0  0  0  0  0  0  0  0  0  0
    2.6782    1.1009    0.4197 C   0  0  0  0  0  0  0  0  0  0  0  0
    3.8368    0.3683    0.3919 C   0  0  0  0  0  0  0  0  0  0  0  0
    3.8129   -0.9594   -0.0270 C   0  0  0  0  0  0  0  0  0  0  0  0
    2.6131   -1.5477   -0.4185 C   0  0  0  0  0  0  0  0  0  0  0  0
    1.4499   -0.8225   -0.3872 C   0  0  0  0  0  0  0  0  0  0  0  0
    4.9895   -1.6991   -0.0548 N   0  0  0  0  0  0  0  0  0  0  0  0
    0.2435    2.4566    0.4206 O   0  0  0  0  0  0  0  0  0  0  0  0
   -4.5592   -1.5725   -1.1829 H   0  0  0  0  0  0  0  0  0  0  0  0
   -5.6310   -0.5105   -0.2386 H   0  0  0  0  0  0  0  0  0  0  0  0
   -5.8328   -2.8672    0.5054 H   0  0  0  0  0  0  0  0  0  0  0  0
   -4.0876   -2.9068    0.8532 H   0  0  0  0  0  0  0  0  0  0  0  0
   -5.1594   -1.8448    1.7975 H   0  0  0  0  0  0  0  0  0  0  0  0
   -3.7079    0.0112    1.1528 H   0  0  0  0  0  0  0  0  0  0  0  0
   -3.1419    0.3368   -1.7215 H   0  0  0  0  0  0  0  0  0  0  0  0
   -4.2137    1.3988   -0.7773 H   0  0  0  0  0  0  0  0  0  0  0  0
   -1.9957    2.4248   -0.9225 H   0  0  0  0  0  0  0  0  0  0  0  0
   -2.2864    1.9018    0.7539 H   0  0  0  0  0  0  0  0  0  0  0  0
    2.6975    2.1309    0.7440 H   0  0  0  0  0  0  0  0  0  0  0  0
    4.7690    0.8216    0.6949 H   0  0  0  0  0  0  0  0  0  0  0  0
    2.5981   -2.5776   -0.7433 H   0  0  0  0  0  0  0  0  0  0  0  0
    0.5196   -1.2795   -0.6907 H   0  0  0  0  0  0  0  0  0  0  0  0
    5.8260   -1.2903    0.2174 H   0  0  0  0  0  0  0  0  0  0  0  0
    4.9741   -2.6241   -0.3465 H   0  0  0  0  0  0  0  0  0  0  0  0
  1  2  1  0  0  0  0
  1  3  1  0  0  0  0
  3  4  1  0  0  0  0
  4  5  1  0  0  0  0
  5  6  1  0  0  0  0
  6  7  1  0  0  0  0
  7  8  1  0  0  0  0
  8  9  2  0  0  0  0
  9 10  1  0  0  0  0
 10 11  2  0  0  0  0
 11 12  1  0  0  0  0
 12 13  2  0  0  0  0
  8 13  1  0  0  0  0
 11 14  1  0  0  0  0
  7 15  2  0  0  0  0
  1 16  1  0  0  0  0
  1 17  1  0  0  0  0
  2 18  1  0  0  0  0
  2 19  1  0  0  0  0
  2 20  1  0  0  0  0
  3 21  1  0  0  0  0
  4 22  1  0  0  0  0
  4 23  1  0  0  0  0
  5 24  1  0  0  0  0
  5 25  1  0  0  0  0
  9 26  1  0  0  0  0
 10 27  1  0  0  0  0
 12 28  1  0  0  0  0
 13 29  1  0  0  0  0
 14 30  1  0  0  0  0
 14 31  1  0  0  0  0
M  END
$$$$
