C7H9NO3S
APtclcactv12151716193D 0   0.00000     0.00000
 
 21 21  0  0  0  0  0  0  0  0999 V2000
    4.1237   -0.2359   -0.0300 N   0  0  0  0  0  0  0  0  0  0  0  0
    2.7273   -0.2103   -0.0134 C   0  0  0  0  0  0  0  0  0  0  0  0
    2.0536    1.0041    0.0036 C   0  0  0  0  0  0  0  0  0  0  0  0
    0.6726    1.0258    0.0195 C   0  0  0  0  0  0  0  0  0  0  0  0
   -0.0390   -0.1596    0.0190 C   0  0  0  0  0  0  0  0  0  0  0  0
    0.6287   -1.3707    0.0022 C   0  0  0  0  0  0  0  0  0  0  0  0
    2.0091   -1.3996   -0.0196 C   0  0  0  0  0  0  0  0  0  0  0  0
   -1.8006   -0.1273    0.0406 S   0  0  0  0  0  0  0  0  0  0  0  0
   -2.1882   -0.2837    1.3987 O   0  0  0  0  0  0  0  0  0  0  0  0
   -2.1913    0.9824   -0.7564 O   0  0  0  0  0  0  0  0  0  0  0  0
   -2.2830   -1.3722   -0.6901 O   0  0  0  0  0  0  0  0  0  0  0  0
   -0.0592    2.3431    0.0380 C   0  0  0  0  0  0  0  0  0  0  0  0
    4.6241    0.5950   -0.0297 H   0  0  0  0  0  0  0  0  0  0  0  0
    4.5932   -1.0847   -0.0378 H   0  0  0  0  0  0  0  0  0  0  0  0
    2.6089    1.9304    0.0047 H   0  0  0  0  0  0  0  0  0  0  0  0
    0.0698   -2.2948    0.0022 H   0  0  0  0  0  0  0  0  0  0  0  0
    2.5299   -2.3456   -0.0331 H   0  0  0  0  0  0  0  0  0  0  0  0
   -3.2455   -1.4531   -0.7362 H   0  0  0  0  0  0  0  0  0  0  0  0
   -0.2474    2.6685   -0.9852 H   0  0  0  0  0  0  0  0  0  0  0  0
   -1.0077    2.2244    0.5618 H   0  0  0  0  0  0  0  0  0  0  0  0
    0.5481    3.0890    0.5506 H   0  0  0  0  0  0  0  0  0  0  0  0
  1  2  1  0  0  0  0
  2  3  2  0  0  0  0
  3  4  1  0  0  0  0
  4  5  2  0  0  0  0
  5  6  1  0  0  0  0
  6  7  2  0  0  0  0
  2  7  1  0  0  0  0
  5  8  1  0  0  0  0
  8  9  2  0  0  0  0
  8 10  2  0  0  0  0
  8 11  1  0  0  0  0
  4 12  1  0  0  0  0
  1 13  1  0  0  0  0
  1 14  1  0  0  0  0
  3 15  1  0  0  0  0
  6 16  1  0  0  0  0
  7 17  1  0  0  0  0
 11 18  1  0  0  0  0
 12 19  1  0  0  0  0
 12 20  1  0  0  0  0
 12 21  1  0  0  0  0
M  END
$$$$
