C10H13N5
APtclcactv12211717253D 0   0.00000     0.00000
 
 28 29  0  0  0  0  0  0  0  0999 V2000
    2.6686    2.1329    0.4870 N   0  0  0  0  0  0  0  0  0  0  0  0
    2.3883    0.8148    0.2008 C   0  0  0  0  0  0  0  0  0  0  0  0
    3.3596   -0.0719    0.0218 N   0  0  0  0  0  0  0  0  0  0  0  0
    3.0930   -1.3379   -0.2527 C   0  0  0  0  0  0  0  0  0  0  0  0
    1.8789   -1.8164   -0.3695 N   0  0  0  0  0  0  0  0  0  0  0  0
    0.8059   -1.0295   -0.2130 C   0  0  0  0  0  0  0  0  0  0  0  0
   -0.4385   -1.4984   -0.3272 N   0  0  0  0  0  0  0  0  0  0  0  0
   -1.4574   -0.6822   -0.1628 C   0  0  0  0  0  0  0  0  0  0  0  0
   -1.2524    0.6665    0.1292 C   0  0  0  0  0  0  0  0  0  0  0  0
   -0.0339    1.1495    0.2461 N   0  0  0  0  0  0  0  0  0  0  0  0
    1.0089    0.3399    0.0891 C   0  0  0  0  0  0  0  0  0  0  0  0
   -2.4376    1.5790    0.3120 C   0  0  0  0  0  0  0  0  0  0  0  0
   -2.8073    2.2104   -1.0318 C   0  0  0  0  0  0  0  0  0  0  0  0
   -2.8628   -1.2106   -0.2920 C   0  0  0  0  0  0  0  0  0  0  0  0
   -3.3483   -1.7073    1.0712 C   0  0  0  0  0  0  0  0  0  0  0  0
    3.5897    2.4279    0.5611 H   0  0  0  0  0  0  0  0  0  0  0  0
    1.9450    2.7669    0.6106 H   0  0  0  0  0  0  0  0  0  0  0  0
    3.9230   -2.0154   -0.3885 H   0  0  0  0  0  0  0  0  0  0  0  0
   -3.2839    1.0044    0.6885 H   0  0  0  0  0  0  0  0  0  0  0  0
   -2.1853    2.3639    1.0250 H   0  0  0  0  0  0  0  0  0  0  0  0
   -3.6189    2.9234   -0.8872 H   0  0  0  0  0  0  0  0  0  0  0  0
   -1.9391    2.7263   -1.4419 H   0  0  0  0  0  0  0  0  0  0  0  0
   -3.1271    1.4311   -1.7236 H   0  0  0  0  0  0  0  0  0  0  0  0
   -3.5193   -0.4147   -0.6436 H   0  0  0  0  0  0  0  0  0  0  0  0
   -2.8770   -2.0348   -1.0052 H   0  0  0  0  0  0  0  0  0  0  0  0
   -4.3925   -2.0108    0.9966 H   0  0  0  0  0  0  0  0  0  0  0  0
   -2.7439   -2.5587    1.3840 H   0  0  0  0  0  0  0  0  0  0  0  0
   -3.2543   -0.9062    1.8043 H   0  0  0  0  0  0  0  0  0  0  0  0
  1  2  1  0  0  0  0
  2  3  2  0  0  0  0
  3  4  1  0  0  0  0
  4  5  2  0  0  0  0
  5  6  1  0  0  0  0
  6  7  2  0  0  0  0
  7  8  1  0  0  0  0
  8  9  2  0  0  0  0
  9 10  1  0  0  0  0
 10 11  2  0  0  0  0
  2 11  1  0  0  0  0
  6 11  1  0  0  0  0
  9 12  1  0  0  0  0
 12 13  1  0  0  0  0
  8 14  1  0  0  0  0
 14 15  1  0  0  0  0
  1 16  1  0  0  0  0
  1 17  1  0  0  0  0
  4 18  1  0  0  0  0
 12 19  1  0  0  0  0
 12 20  1  0  0  0  0
 13 21  1  0  0  0  0
 13 22  1  0  0  0  0
 13 23  1  0  0  0  0
 14 24  1  0  0  0  0
 14 25  1  0  0  0  0
 15 26  1  0  0  0  0
 15 27  1  0  0  0  0
 15 28  1  0  0  0  0
M  END
$$$$
