C10H13N5O
APtclcactv12211717253D 0   0.00000     0.00000
 
 29 30  0  0  0  0  0  0  0  0999 V2000
    1.9693    2.6443    0.4978 N   0  0  0  0  0  0  0  0  0  0  0  0
    1.9039    1.2931    0.2377 C   0  0  0  0  0  0  0  0  0  0  0  0
    3.0047    0.5677    0.0944 N   0  0  0  0  0  0  0  0  0  0  0  0
    2.9444   -0.7349   -0.1559 C   0  0  0  0  0  0  0  0  0  0  0  0
    1.8157   -1.4000   -0.2803 N   0  0  0  0  0  0  0  0  0  0  0  0
    0.6326   -0.7840   -0.1578 C   0  0  0  0  0  0  0  0  0  0  0  0
   -0.5226   -1.4415   -0.2803 N   0  0  0  0  0  0  0  0  0  0  0  0
   -1.6582   -0.7887   -0.1504 C   0  0  0  0  0  0  0  0  0  0  0  0
   -1.6683    0.5804    0.1130 C   0  0  0  0  0  0  0  0  0  0  0  0
   -0.5408    1.2480    0.2371 N   0  0  0  0  0  0  0  0  0  0  0  0
    0.6167    0.6064    0.1159 C   0  0  0  0  0  0  0  0  0  0  0  0
   -2.9830    1.3029    0.2566 C   0  0  0  0  0  0  0  0  0  0  0  0
   -3.4204    1.8416   -1.1070 C   0  0  0  0  0  0  0  0  0  0  0  0
   -2.9630   -1.5300   -0.2884 C   0  0  0  0  0  0  0  0  0  0  0  0
   -3.3915   -2.0672    1.0786 C   0  0  0  0  0  0  0  0  0  0  0  0
    4.1069   -1.4156   -0.2908 O   0  0  0  0  0  0  0  0  0  0  0  0
    2.8314    3.0814    0.5792 H   0  0  0  0  0  0  0  0  0  0  0  0
    1.1532    3.1595    0.5956 H   0  0  0  0  0  0  0  0  0  0  0  0
   -3.7377    0.6126    0.6336 H   0  0  0  0  0  0  0  0  0  0  0  0
   -2.8677    2.1319    0.9548 H   0  0  0  0  0  0  0  0  0  0  0  0
   -2.6345    2.4766   -1.5159 H   0  0  0  0  0  0  0  0  0  0  0  0
   -3.6038    1.0082   -1.7851 H   0  0  0  0  0  0  0  0  0  0  0  0
   -4.3346    2.4239   -0.9914 H   0  0  0  0  0  0  0  0  0  0  0  0
   -3.7274   -0.8523   -0.6684 H   0  0  0  0  0  0  0  0  0  0  0  0
   -2.8370   -2.3612   -0.9822 H   0  0  0  0  0  0  0  0  0  0  0  0
   -4.3751   -2.5295    0.9952 H   0  0  0  0  0  0  0  0  0  0  0  0
   -2.6693   -2.8087    1.4202 H   0  0  0  0  0  0  0  0  0  0  0  0
   -3.4354   -1.2461    1.7941 H   0  0  0  0  0  0  0  0  0  0  0  0
    4.4476   -1.7801    0.5375 H   0  0  0  0  0  0  0  0  0  0  0  0
  1  2  1  0  0  0  0
  2  3  2  0  0  0  0
  3  4  1  0  0  0  0
  4  5  2  0  0  0  0
  5  6  1  0  0  0  0
  6  7  2  0  0  0  0
  7  8  1  0  0  0  0
  8  9  2  0  0  0  0
  9 10  1  0  0  0  0
 10 11  2  0  0  0  0
  2 11  1  0  0  0  0
  6 11  1  0  0  0  0
  9 12  1  0  0  0  0
 12 13  1  0  0  0  0
  8 14  1  0  0  0  0
 14 15  1  0  0  0  0
  4 16  1  0  0  0  0
  1 17  1  0  0  0  0
  1 18  1  0  0  0  0
 12 19  1  0  0  0  0
 12 20  1  0  0  0  0
 13 21  1  0  0  0  0
 13 22  1  0  0  0  0
 13 23  1  0  0  0  0
 14 24  1  0  0  0  0
 14 25  1  0  0  0  0
 15 26  1  0  0  0  0
 15 27  1  0  0  0  0
 15 28  1  0  0  0  0
 16 29  1  0  0  0  0
M  END
$$$$
