C14H12O2
APtclcactv12091702573D 0   0.00000     0.00000
 
 28 29  0  0  0  0  0  0  0  0999 V2000
   -0.8418    0.1545    0.2171 C   0  0  0  0  0  0  0  0  0  0  0  0
   -0.1471   -0.7534    1.0137 C   0  0  0  0  0  0  0  0  0  0  0  0
    1.2162   -0.6187    1.1808 C   0  0  0  0  0  0  0  0  0  0  0  0
    1.8929    0.4155    0.5597 C   0  0  0  0  0  0  0  0  0  0  0  0
    1.2083    1.3197   -0.2322 C   0  0  0  0  0  0  0  0  0  0  0  0
   -0.1551    1.1941   -0.4066 C   0  0  0  0  0  0  0  0  0  0  0  0
    3.3814    0.5580    0.7468 C   0  0  0  0  0  0  0  0  0  0  0  0
    4.0993   -0.2208   -0.3252 C   0  0  0  0  0  0  0  0  0  0  0  0
    3.4671   -0.8291   -1.1559 O   0  0  0  0  0  0  0  0  0  0  0  0
    5.4411   -0.2386   -0.3571 O   0  0  0  0  0  0  0  0  0  0  0  0
   -2.3067    0.0111    0.0287 C   0  0  0  0  0  0  0  0  0  0  0  0
   -3.1233    1.1400    0.0112 C   0  0  0  0  0  0  0  0  0  0  0  0
   -4.4851    1.0009   -0.1648 C   0  0  0  0  0  0  0  0  0  0  0  0
   -5.0396   -0.2563   -0.3237 C   0  0  0  0  0  0  0  0  0  0  0  0
   -4.2337   -1.3804   -0.3072 C   0  0  0  0  0  0  0  0  0  0  0  0
   -2.8700   -1.2525   -0.1371 C   0  0  0  0  0  0  0  0  0  0  0  0
   -0.6746   -1.5609    1.4997 H   0  0  0  0  0  0  0  0  0  0  0  0
    1.7557   -1.3219    1.7981 H   0  0  0  0  0  0  0  0  0  0  0  0
    1.7414    2.1255   -0.7145 H   0  0  0  0  0  0  0  0  0  0  0  0
   -0.6886    1.9004   -1.0254 H   0  0  0  0  0  0  0  0  0  0  0  0
    3.6572    1.6103    0.6778 H   0  0  0  0  0  0  0  0  0  0  0  0
    3.6631    0.1722    1.7265 H   0  0  0  0  0  0  0  0  0  0  0  0
    5.8566   -0.7520   -1.0635 H   0  0  0  0  0  0  0  0  0  0  0  0
   -2.6914    2.1221    0.1355 H   0  0  0  0  0  0  0  0  0  0  0  0
   -5.1190    1.8752   -0.1782 H   0  0  0  0  0  0  0  0  0  0  0  0
   -6.1058   -0.3607   -0.4608 H   0  0  0  0  0  0  0  0  0  0  0  0
   -4.6719   -2.3596   -0.4317 H   0  0  0  0  0  0  0  0  0  0  0  0
   -2.2417   -2.1308   -0.1244 H   0  0  0  0  0  0  0  0  0  0  0  0
  1  2  2  0  0  0  0
  2  3  1  0  0  0  0
  3  4  2  0  0  0  0
  4  5  1  0  0  0  0
  5  6  2  0  0  0  0
  1  6  1  0  0  0  0
  4  7  1  0  0  0  0
  7  8  1  0  0  0  0
  8  9  2  0  0  0  0
  8 10  1  0  0  0  0
  1 11  1  0  0  0  0
 11 12  2  0  0  0  0
 12 13  1  0  0  0  0
 13 14  2  0  0  0  0
 14 15  1  0  0  0  0
 15 16  2  0  0  0  0
 11 16  1  0  0  0  0
  2 17  1  0  0  0  0
  3 18  1  0  0  0  0
  5 19  1  0  0  0  0
  6 20  1  0  0  0  0
  7 21  1  0  0  0  0
  7 22  1  0  0  0  0
 10 23  1  0  0  0  0
 12 24  1  0  0  0  0
 13 25  1  0  0  0  0
 14 26  1  0  0  0  0
 15 27  1  0  0  0  0
 16 28  1  0  0  0  0
M  END
$$$$
