C12H9Br
APtclcactv12111704553D 0   0.00000     0.00000
 
 22 23  0  0  0  0  0  0  0  0999 V2000
   -3.5700    0.0002   -0.0006 Br  0  0  0  0  0  0  0  0  0  0  0  0
   -1.6790    0.0001   -0.0001 C   0  0  0  0  0  0  0  0  0  0  0  0
   -0.9893    1.1284    0.4089 C   0  0  0  0  0  0  0  0  0  0  0  0
    0.3907    1.1334    0.4111 C   0  0  0  0  0  0  0  0  0  0  0  0
    1.0898    0.0001    0.0005 C   0  0  0  0  0  0  0  0  0  0  0  0
    0.3908   -1.1332   -0.4104 C   0  0  0  0  0  0  0  0  0  0  0  0
   -0.9892   -1.1301   -0.4034 C   0  0  0  0  0  0  0  0  0  0  0  0
    2.5736    0.0002    0.0004 C   0  0  0  0  0  0  0  0  0  0  0  0
    3.2730   -1.1336    0.4089 C   0  0  0  0  0  0  0  0  0  0  0  0
    4.6532   -1.1280    0.4069 C   0  0  0  0  0  0  0  0  0  0  0  0
    5.3421    0.0005    0.0003 C   0  0  0  0  0  0  0  0  0  0  0  0
    4.6529    1.1289   -0.4059 C   0  0  0  0  0  0  0  0  0  0  0  0
    3.2727    1.1322   -0.4137 C   0  0  0  0  0  0  0  0  0  0  0  0
   -1.5321    2.0064    0.7266 H   0  0  0  0  0  0  0  0  0  0  0  0
    0.9279    2.0143    0.7301 H   0  0  0  0  0  0  0  0  0  0  0  0
    0.9281   -2.0139   -0.7298 H   0  0  0  0  0  0  0  0  0  0  0  0
   -1.5319   -2.0079   -0.7217 H   0  0  0  0  0  0  0  0  0  0  0  0
    2.7361   -2.0151    0.7269 H   0  0  0  0  0  0  0  0  0  0  0  0
    5.1963   -2.0061    0.7237 H   0  0  0  0  0  0  0  0  0  0  0  0
    6.4221    0.0006    0.0002 H   0  0  0  0  0  0  0  0  0  0  0  0
    5.1958    2.0075   -0.7217 H   0  0  0  0  0  0  0  0  0  0  0  0
    2.7356    2.0138   -0.7310 H   0  0  0  0  0  0  0  0  0  0  0  0
  1  2  1  0  0  0  0
  2  3  2  0  0  0  0
  3  4  1  0  0  0  0
  4  5  2  0  0  0  0
  5  6  1  0  0  0  0
  6  7  2  0  0  0  0
  2  7  1  0  0  0  0
  5  8  1  0  0  0  0
  8  9  2  0  0  0  0
  9 10  1  0  0  0  0
 10 11  2  0  0  0  0
 11 12  1  0  0  0  0
 12 13  2  0  0  0  0
  8 13  1  0  0  0  0
  3 14  1  0  0  0  0
  4 15  1  0  0  0  0
  6 16  1  0  0  0  0
  7 17  1  0  0  0  0
  9 18  1  0  0  0  0
 10 19  1  0  0  0  0
 11 20  1  0  0  0  0
 12 21  1  0  0  0  0
 13 22  1  0  0  0  0
M  END
$$$$
