C17H28N2O2
APtclcactv12211717153D 0   0.00000     0.00000
 
 49 49  0  0  0  0  0  0  0  0999 V2000
    4.7010   -2.4015    0.5855 C   0  0  0  0  0  0  0  0  0  0  0  0
    4.3544   -3.5083   -0.4124 C   0  0  0  0  0  0  0  0  0  0  0  0
    4.2680   -1.1046    0.0482 N   0  0  0  0  0  0  0  0  0  0  0  0
    4.3658   -0.0528    1.0689 C   0  0  0  0  0  0  0  0  0  0  0  0
    3.5598    1.1684    0.6217 C   0  0  0  0  0  0  0  0  0  0  0  0
    2.1540    0.8156    0.5361 O   0  0  0  0  0  0  0  0  0  0  0  0
    1.3017    1.7866    0.1528 C   0  0  0  0  0  0  0  0  0  0  0  0
   -0.1400    1.5008    0.0438 C   0  0  0  0  0  0  0  0  0  0  0  0
   -1.0258    2.5074   -0.3539 C   0  0  0  0  0  0  0  0  0  0  0  0
   -2.3665    2.2382   -0.4543 C   0  0  0  0  0  0  0  0  0  0  0  0
   -2.8464    0.9646   -0.1604 C   0  0  0  0  0  0  0  0  0  0  0  0
   -1.9672   -0.0398    0.2358 C   0  0  0  0  0  0  0  0  0  0  0  0
   -0.6246    0.2210    0.3322 C   0  0  0  0  0  0  0  0  0  0  0  0
   -4.2064    0.6954   -0.2623 N   0  0  0  0  0  0  0  0  0  0  0  0
   -4.7131   -0.6441    0.0465 C   0  0  0  0  0  0  0  0  0  0  0  0
   -6.2310   -0.6715   -0.1436 C   0  0  0  0  0  0  0  0  0  0  0  0
   -6.7602   -2.0704    0.1789 C   0  0  0  0  0  0  0  0  0  0  0  0
   -8.2780   -2.0978   -0.0113 C   0  0  0  0  0  0  0  0  0  0  0  0
    1.7220    2.8977   -0.1029 O   0  0  0  0  0  0  0  0  0  0  0  0
    5.0382   -0.7480   -1.1508 C   0  0  0  0  0  0  0  0  0  0  0  0
    6.5188   -0.6207   -0.7867 C   0  0  0  0  0  0  0  0  0  0  0  0
    4.1918   -2.5916    1.5303 H   0  0  0  0  0  0  0  0  0  0  0  0
    5.7783   -2.3852    0.7503 H   0  0  0  0  0  0  0  0  0  0  0  0
    3.2770   -3.5247   -0.5771 H   0  0  0  0  0  0  0  0  0  0  0  0
    4.8636   -3.3182   -1.3572 H   0  0  0  0  0  0  0  0  0  0  0  0
    4.6756   -4.4706   -0.0137 H   0  0  0  0  0  0  0  0  0  0  0  0
    3.9681   -0.4247    2.0132 H   0  0  0  0  0  0  0  0  0  0  0  0
    5.4103    0.2297    1.2007 H   0  0  0  0  0  0  0  0  0  0  0  0
    3.6890    1.9737    1.3449 H   0  0  0  0  0  0  0  0  0  0  0  0
    3.9119    1.4980   -0.3558 H   0  0  0  0  0  0  0  0  0  0  0  0
   -0.6543    3.4956   -0.5813 H   0  0  0  0  0  0  0  0  0  0  0  0
   -3.0511    3.0150   -0.7613 H   0  0  0  0  0  0  0  0  0  0  0  0
   -2.3428   -1.0265    0.4634 H   0  0  0  0  0  0  0  0  0  0  0  0
    0.0569   -0.5586    0.6392 H   0  0  0  0  0  0  0  0  0  0  0  0
   -4.8199    1.3944   -0.5379 H   0  0  0  0  0  0  0  0  0  0  0  0
   -4.2501   -1.3706   -0.6212 H   0  0  0  0  0  0  0  0  0  0  0  0
   -4.4717   -0.8946    1.0795 H   0  0  0  0  0  0  0  0  0  0  0  0
   -6.6940    0.0550    0.5241 H   0  0  0  0  0  0  0  0  0  0  0  0
   -6.4723   -0.4210   -1.1767 H   0  0  0  0  0  0  0  0  0  0  0  0
   -6.2971   -2.7969   -0.4889 H   0  0  0  0  0  0  0  0  0  0  0  0
   -6.5188   -2.3209    1.2119 H   0  0  0  0  0  0  0  0  0  0  0  0
   -8.7411   -1.3713    0.6564 H   0  0  0  0  0  0  0  0  0  0  0  0
   -8.5194   -1.8473   -1.0443 H   0  0  0  0  0  0  0  0  0  0  0  0
   -8.6550   -3.0944    0.2185 H   0  0  0  0  0  0  0  0  0  0  0  0
    4.9152   -1.5243   -1.9059 H   0  0  0  0  0  0  0  0  0  0  0  0
    4.6780    0.2024   -1.5447 H   0  0  0  0  0  0  0  0  0  0  0  0
    7.0925   -0.3723   -1.6796 H   0  0  0  0  0  0  0  0  0  0  0  0
    6.6439    0.1669   -0.0437 H   0  0  0  0  0  0  0  0  0  0  0  0
    6.8749   -1.5662   -0.3774 H   0  0  0  0  0  0  0  0  0  0  0  0
  1  2  1  0  0  0  0
  1  3  1  0  0  0  0
  3  4  1  0  0  0  0
  4  5  1  0  0  0  0
  5  6  1  0  0  0  0
  6  7  1  0  0  0  0
  7  8  1  0  0  0  0
  8  9  2  0  0  0  0
  9 10  1  0  0  0  0
 10 11  2  0  0  0  0
 11 12  1  0  0  0  0
 12 13  2  0  0  0  0
  8 13  1  0  0  0  0
 11 14  1  0  0  0  0
 14 15  1  0  0  0  0
 15 16  1  0  0  0  0
 16 17  1  0  0  0  0
 17 18  1  0  0  0  0
  7 19  2  0  0  0  0
  3 20  1  0  0  0  0
 20 21  1  0  0  0  0
  1 22  1  0  0  0  0
  1 23  1  0  0  0  0
  2 24  1  0  0  0  0
  2 25  1  0  0  0  0
  2 26  1  0  0  0  0
  4 27  1  0  0  0  0
  4 28  1  0  0  0  0
  5 29  1  0  0  0  0
  5 30  1  0  0  0  0
  9 31  1  0  0  0  0
 10 32  1  0  0  0  0
 12 33  1  0  0  0  0
 13 34  1  0  0  0  0
 14 35  1  0  0  0  0
 15 36  1  0  0  0  0
 15 37  1  0  0  0  0
 16 38  1  0  0  0  0
 16 39  1  0  0  0  0
 17 40  1  0  0  0  0
 17 41  1  0  0  0  0
 18 42  1  0  0  0  0
 18 43  1  0  0  0  0
 18 44  1  0  0  0  0
 20 45  1  0  0  0  0
 20 46  1  0  0  0  0
 21 47  1  0  0  0  0
 21 48  1  0  0  0  0
 21 49  1  0  0  0  0
M  END
$$$$
