C11H14O2
APtclcactv12211717343D 0   0.00000     0.00000
 
 27 27  0  0  0  0  0  0  0  0999 V2000
   -2.2186   -0.0230   -1.0012 C   0  0  0  0  0  0  0  0  0  0  0  0
   -3.0437    0.0183    0.2867 C   0  0  0  0  0  0  0  0  0  0  0  0
   -4.5334    0.0225   -0.0620 C   0  0  0  0  0  0  0  0  0  0  0  0
   -5.3585    0.0638    1.2258 C   0  0  0  0  0  0  0  0  0  0  0  0
   -0.7513   -0.0271   -0.6577 C   0  0  0  0  0  0  0  0  0  0  0  0
   -0.0915   -1.2287   -0.4692 C   0  0  0  0  0  0  0  0  0  0  0  0
    1.2515   -1.2398   -0.1547 C   0  0  0  0  0  0  0  0  0  0  0  0
    1.9452   -0.0348   -0.0266 C   0  0  0  0  0  0  0  0  0  0  0  0
    3.3837   -0.0389    0.3096 C   0  0  0  0  0  0  0  0  0  0  0  0
    3.9657   -1.0922    0.4752 O   0  0  0  0  0  0  0  0  0  0  0  0
    4.0500    1.1254    0.4324 O   0  0  0  0  0  0  0  0  0  0  0  0
    1.2732    1.1741   -0.2182 C   0  0  0  0  0  0  0  0  0  0  0  0
   -0.0687    1.1704   -0.5379 C   0  0  0  0  0  0  0  0  0  0  0  0
   -2.4634   -0.9258   -1.5607 H   0  0  0  0  0  0  0  0  0  0  0  0
   -2.4474    0.8535   -1.6075 H   0  0  0  0  0  0  0  0  0  0  0  0
   -2.8150   -0.8581    0.8930 H   0  0  0  0  0  0  0  0  0  0  0  0
   -2.7989    0.9211    0.8462 H   0  0  0  0  0  0  0  0  0  0  0  0
   -4.7622    0.8990   -0.6683 H   0  0  0  0  0  0  0  0  0  0  0  0
   -4.7782   -0.8803   -0.6216 H   0  0  0  0  0  0  0  0  0  0  0  0
   -5.1138    0.9667    1.7853 H   0  0  0  0  0  0  0  0  0  0  0  0
   -6.4198    0.0669    0.9774 H   0  0  0  0  0  0  0  0  0  0  0  0
   -5.1298   -0.8126    1.8321 H   0  0  0  0  0  0  0  0  0  0  0  0
   -0.6294   -2.1600   -0.5683 H   0  0  0  0  0  0  0  0  0  0  0  0
    1.7652   -2.1783   -0.0075 H   0  0  0  0  0  0  0  0  0  0  0  0
    4.9899    1.0721    0.6535 H   0  0  0  0  0  0  0  0  0  0  0  0
    1.8039    2.1096   -0.1206 H   0  0  0  0  0  0  0  0  0  0  0  0
   -0.5897    2.1047   -0.6863 H   0  0  0  0  0  0  0  0  0  0  0  0
  1  2  1  0  0  0  0
  2  3  1  0  0  0  0
  3  4  1  0  0  0  0
  1  5  1  0  0  0  0
  5  6  2  0  0  0  0
  6  7  1  0  0  0  0
  7  8  2  0  0  0  0
  8  9  1  0  0  0  0
  9 10  2  0  0  0  0
  9 11  1  0  0  0  0
  8 12  1  0  0  0  0
 12 13  2  0  0  0  0
  5 13  1  0  0  0  0
  1 14  1  0  0  0  0
  1 15  1  0  0  0  0
  2 16  1  0  0  0  0
  2 17  1  0  0  0  0
  3 18  1  0  0  0  0
  3 19  1  0  0  0  0
  4 20  1  0  0  0  0
  4 21  1  0  0  0  0
  4 22  1  0  0  0  0
  6 23  1  0  0  0  0
  7 24  1  0  0  0  0
 11 25  1  0  0  0  0
 12 26  1  0  0  0  0
 13 27  1  0  0  0  0
M  END
$$$$
