C8H5NO2S
APtclcactv12151716253D 0   0.00000     0.00000
 
 17 17  0  0  0  0  0  0  0  0999 V2000
    3.2137    0.3514    0.0008 C   0  0  0  0  0  0  0  0  0  0  0  0
    4.0811   -0.4993    0.0005 O   0  0  0  0  0  0  0  0  0  0  0  0
    3.5497    1.6566   -0.0042 O   0  0  0  0  0  0  0  0  0  0  0  0
    1.7921   -0.0444    0.0006 C   0  0  0  0  0  0  0  0  0  0  0  0
    1.4618   -1.4050    0.0001 C   0  0  0  0  0  0  0  0  0  0  0  0
    0.1619   -1.8059   -0.0005 C   0  0  0  0  0  0  0  0  0  0  0  0
   -0.8975   -0.7933   -0.0002 C   0  0  0  0  0  0  0  0  0  0  0  0
   -0.5139    0.6211    0.0009 C   0  0  0  0  0  0  0  0  0  0  0  0
    0.8062    0.9497    0.0067 C   0  0  0  0  0  0  0  0  0  0  0  0
   -2.1710   -1.1479   -0.0012 N   0  0  0  0  0  0  0  0  0  0  0  0
   -3.0634   -0.2727   -0.0009 C   0  0  0  0  0  0  0  0  0  0  0  0
   -4.1726    0.8150   -0.0004 S   0  0  0  0  0  0  0  0  0  0  0  0
    4.4936    1.8668   -0.0080 H   0  0  0  0  0  0  0  0  0  0  0  0
    2.2485   -2.1450   -0.0002 H   0  0  0  0  0  0  0  0  0  0  0  0
   -0.0863   -2.8570   -0.0017 H   0  0  0  0  0  0  0  0  0  0  0  0
   -1.2695    1.3927    0.0012 H   0  0  0  0  0  0  0  0  0  0  0  0
    1.0972    1.9898    0.0079 H   0  0  0  0  0  0  0  0  0  0  0  0
  1  2  2  0  0  0  0
  1  3  1  0  0  0  0
  1  4  1  0  0  0  0
  4  5  2  0  0  0  0
  5  6  1  0  0  0  0
  6  7  2  0  0  0  0
  7  8  1  0  0  0  0
  8  9  2  0  0  0  0
  4  9  1  0  0  0  0
  7 10  1  0  0  0  0
 10 11  2  0  0  0  0
 11 12  2  0  0  0  0
  3 13  1  0  0  0  0
  5 14  1  0  0  0  0
  6 15  1  0  0  0  0
  8 16  1  0  0  0  0
  9 17  1  0  0  0  0
M  END
$$$$
