C6H6ClNO2S
APtclcactv12211716523D 0   0.00000     0.00000
 
 17 17  0  0  0  0  0  0  0  0999 V2000
   -3.9655   -0.0021    0.0432 Cl  0  0  0  0  0  0  0  0  0  0  0  0
   -2.2300   -0.0012    0.0041 C   0  0  0  0  0  0  0  0  0  0  0  0
   -1.5388    1.1972   -0.0131 C   0  0  0  0  0  0  0  0  0  0  0  0
   -0.1570    1.1972   -0.0442 C   0  0  0  0  0  0  0  0  0  0  0  0
    0.5344    0.0002   -0.0586 C   0  0  0  0  0  0  0  0  0  0  0  0
   -0.1557   -1.1975   -0.0418 C   0  0  0  0  0  0  0  0  0  0  0  0
   -1.5373   -1.1988   -0.0040 C   0  0  0  0  0  0  0  0  0  0  0  0
    2.2960    0.0011   -0.0988 S   0  0  0  0  0  0  0  0  0  0  0  0
    2.6854   -1.2490   -0.6508 O   0  0  0  0  0  0  0  0  0  0  0  0
    2.6840    1.2504   -0.6537 O   0  0  0  0  0  0  0  0  0  0  0  0
    2.8221    0.0032    1.4714 N   0  0  0  0  0  0  0  0  0  0  0  0
   -2.0788    2.1324   -0.0025 H   0  0  0  0  0  0  0  0  0  0  0  0
    0.3827    2.1326   -0.0576 H   0  0  0  0  0  0  0  0  0  0  0  0
    0.3850   -2.1323   -0.0535 H   0  0  0  0  0  0  0  0  0  0  0  0
   -2.0764   -2.1346    0.0091 H   0  0  0  0  0  0  0  0  0  0  0  0
    3.6663   -0.4161    1.7006 H   0  0  0  0  0  0  0  0  0  0  0  0
    2.2862    0.4238    2.1619 H   0  0  0  0  0  0  0  0  0  0  0  0
  1  2  1  0  0  0  0
  2  3  2  0  0  0  0
  3  4  1  0  0  0  0
  4  5  2  0  0  0  0
  5  6  1  0  0  0  0
  6  7  2  0  0  0  0
  2  7  1  0  0  0  0
  5  8  1  0  0  0  0
  8  9  2  0  0  0  0
  8 10  2  0  0  0  0
  8 11  1  0  0  0  0
  3 12  1  0  0  0  0
  4 13  1  0  0  0  0
  6 14  1  0  0  0  0
  7 15  1  0  0  0  0
 11 16  1  0  0  0  0
 11 17  1  0  0  0  0
M  END
$$$$
