C8H7ClO3
APtclcactv12151716263D 0   0.00000     0.00000
 
 19 19  0  0  0  0  0  0  0  0999 V2000
   -4.3152   -0.3105   -0.0004 Cl  0  0  0  0  0  0  0  0  0  0  0  0
   -2.6001   -0.0416   -0.0008 C   0  0  0  0  0  0  0  0  0  0  0  0
   -2.1032    1.2497    0.0000 C   0  0  0  0  0  0  0  0  0  0  0  0
   -0.7388    1.4657    0.0001 C   0  0  0  0  0  0  0  0  0  0  0  0
    0.1334    0.3869   -0.0006 C   0  0  0  0  0  0  0  0  0  0  0  0
    1.4762    0.5975   -0.0000 O   0  0  0  0  0  0  0  0  0  0  0  0
    2.3143   -0.5599   -0.0008 C   0  0  0  0  0  0  0  0  0  0  0  0
    3.7597   -0.1334   -0.0000 C   0  0  0  0  0  0  0  0  0  0  0  0
    4.0430    1.0411    0.0011 O   0  0  0  0  0  0  0  0  0  0  0  0
    4.7324   -1.0584   -0.0005 O   0  0  0  0  0  0  0  0  0  0  0  0
   -0.3668   -0.9070   -0.0014 C   0  0  0  0  0  0  0  0  0  0  0  0
   -1.7318   -1.1189    0.0038 C   0  0  0  0  0  0  0  0  0  0  0  0
   -2.7825    2.0894    0.0002 H   0  0  0  0  0  0  0  0  0  0  0  0
   -0.3513    2.4738    0.0004 H   0  0  0  0  0  0  0  0  0  0  0  0
    2.1110   -1.1563    0.8886 H   0  0  0  0  0  0  0  0  0  0  0  0
    2.1115   -1.1548   -0.8913 H   0  0  0  0  0  0  0  0  0  0  0  0
    5.6443   -0.7366    0.0000 H   0  0  0  0  0  0  0  0  0  0  0  0
    0.3107   -1.7481   -0.0020 H   0  0  0  0  0  0  0  0  0  0  0  0
   -2.1216   -2.1261    0.0035 H   0  0  0  0  0  0  0  0  0  0  0  0
  1  2  1  0  0  0  0
  2  3  2  0  0  0  0
  3  4  1  0  0  0  0
  4  5  2  0  0  0  0
  5  6  1  0  0  0  0
  6  7  1  0  0  0  0
  7  8  1  0  0  0  0
  8  9  2  0  0  0  0
  8 10  1  0  0  0  0
  5 11  1  0  0  0  0
 11 12  2  0  0  0  0
  2 12  1  0  0  0  0
  3 13  1  0  0  0  0
  4 14  1  0  0  0  0
  7 15  1  0  0  0  0
  7 16  1  0  0  0  0
 10 17  1  0  0  0  0
 11 18  1  0  0  0  0
 12 19  1  0  0  0  0
M  END
$$$$
