C9H6N2S
APtclcactv12151716413D 0   0.00000     0.00000
 
 18 18  0  0  0  0  0  0  0  0999 V2000
   -4.0423   -0.5903    0.2724 C   0  0  0  0  0  0  0  0  0  0  0  0
   -5.1083   -0.9297    0.4698 N   0  0  0  0  0  0  0  0  0  0  0  0
   -2.6986   -0.1624    0.0235 C   0  0  0  0  0  0  0  0  0  0  0  0
   -2.3043    1.1366    0.3504 C   0  0  0  0  0  0  0  0  0  0  0  0
   -1.0083    1.5421    0.1079 C   0  0  0  0  0  0  0  0  0  0  0  0
   -0.1001    0.6653   -0.4584 C   0  0  0  0  0  0  0  0  0  0  0  0
    1.3139    1.1157   -0.7208 C   0  0  0  0  0  0  0  0  0  0  0  0
    2.1426    0.8322    0.4535 N   0  0  0  0  0  0  0  0  0  0  0  0
    3.1313    0.0741    0.3524 C   0  0  0  0  0  0  0  0  0  0  0  0
    4.3601   -0.8681    0.2267 S   0  0  0  0  0  0  0  0  0  0  0  0
   -0.4840   -0.6234   -0.7844 C   0  0  0  0  0  0  0  0  0  0  0  0
   -1.7752   -1.0441   -0.5420 C   0  0  0  0  0  0  0  0  0  0  0  0
   -3.0124    1.8222    0.7919 H   0  0  0  0  0  0  0  0  0  0  0  0
   -0.7019    2.5466    0.3603 H   0  0  0  0  0  0  0  0  0  0  0  0
    1.7113    0.5812   -1.5836 H   0  0  0  0  0  0  0  0  0  0  0  0
    1.3225    2.1871   -0.9216 H   0  0  0  0  0  0  0  0  0  0  0  0
    0.2300   -1.3028   -1.2262 H   0  0  0  0  0  0  0  0  0  0  0  0
   -2.0735   -2.0503   -0.7966 H   0  0  0  0  0  0  0  0  0  0  0  0
  1  2  3  0  0  0  0
  1  3  1  0  0  0  0
  3  4  2  0  0  0  0
  4  5  1  0  0  0  0
  5  6  2  0  0  0  0
  6  7  1  0  0  0  0
  7  8  1  0  0  0  0
  8  9  2  0  0  0  0
  9 10  2  0  0  0  0
  6 11  1  0  0  0  0
 11 12  2  0  0  0  0
  3 12  1  0  0  0  0
  4 13  1  0  0  0  0
  5 14  1  0  0  0  0
  7 15  1  0  0  0  0
  7 16  1  0  0  0  0
 11 17  1  0  0  0  0
 12 18  1  0  0  0  0
M  END
$$$$
