C7H9N
APtclcactv12151716193D 0   0.00000     0.00000
 
 17 17  0  0  0  0  0  0  0  0999 V2000
   -1.9768    0.0010   -0.5973 C   0  0  0  0  0  0  0  0  0  0  0  0
   -2.7575   -0.0008    0.7185 C   0  0  0  0  0  0  0  0  0  0  0  0
   -0.4986    0.0005   -0.3043 C   0  0  0  0  0  0  0  0  0  0  0  0
    0.1975   -1.1909   -0.1679 C   0  0  0  0  0  0  0  0  0  0  0  0
    1.5528   -1.1521    0.1003 C   0  0  0  0  0  0  0  0  0  0  0  0
    2.1827   -0.0005    0.2267 N   0  0  0  0  0  0  0  0  0  0  0  0
    1.5529    1.1516    0.1035 C   0  0  0  0  0  0  0  0  0  0  0  0
    0.1989    1.1913   -0.1703 C   0  0  0  0  0  0  0  0  0  0  0  0
   -2.2334   -0.8881   -1.1732 H   0  0  0  0  0  0  0  0  0  0  0  0
   -2.2332    0.8918   -1.1707 H   0  0  0  0  0  0  0  0  0  0  0  0
   -3.8267   -0.0004    0.5066 H   0  0  0  0  0  0  0  0  0  0  0  0
   -2.5011   -0.8916    1.2919 H   0  0  0  0  0  0  0  0  0  0  0  0
   -2.5010    0.8883    1.2945 H   0  0  0  0  0  0  0  0  0  0  0  0
   -0.3129   -2.1372   -0.2697 H   0  0  0  0  0  0  0  0  0  0  0  0
    2.1022   -2.0757    0.2079 H   0  0  0  0  0  0  0  0  0  0  0  0
    2.1025    2.0747    0.2141 H   0  0  0  0  0  0  0  0  0  0  0  0
   -0.3112    2.1380   -0.2703 H   0  0  0  0  0  0  0  0  0  0  0  0
  1  2  1  0  0  0  0
  1  3  1  0  0  0  0
  3  4  2  0  0  0  0
  4  5  1  0  0  0  0
  5  6  2  0  0  0  0
  6  7  1  0  0  0  0
  7  8  2  0  0  0  0
  3  8  1  0  0  0  0
  1  9  1  0  0  0  0
  1 10  1  0  0  0  0
  2 11  1  0  0  0  0
  2 12  1  0  0  0  0
  2 13  1  0  0  0  0
  4 14  1  0  0  0  0
  5 15  1  0  0  0  0
  7 16  1  0  0  0  0
  8 17  1  0  0  0  0
M  END
$$$$
