C12H18O2
APtclcactv12141705283D 0   0.00000     0.00000
 
 32 32  0  0  0  0  0  0  0  0999 V2000
   -0.3019    0.0587   -1.1878 C   0  0  0  0  0  0  0  0  0  0  0  0
   -1.3285    0.1693   -0.0588 C   0  0  0  0  0  0  0  0  0  0  0  0
   -2.7400    0.0767   -0.6421 C   0  0  0  0  0  0  0  0  0  0  0  0
   -3.7666    0.1872    0.4869 C   0  0  0  0  0  0  0  0  0  0  0  0
   -5.1780    0.0947   -0.0963 C   0  0  0  0  0  0  0  0  0  0  0  0
   -6.2047    0.2052    1.0327 C   0  0  0  0  0  0  0  0  0  0  0  0
    1.0883    0.1499   -0.6133 C   0  0  0  0  0  0  0  0  0  0  0  0
    1.7091   -0.9873   -0.1167 C   0  0  0  0  0  0  0  0  0  0  0  0
    2.9882   -0.9027    0.4117 C   0  0  0  0  0  0  0  0  0  0  0  0
    3.6436    0.3183    0.4425 C   0  0  0  0  0  0  0  0  0  0  0  0
    4.8975    0.4042    0.9594 O   0  0  0  0  0  0  0  0  0  0  0  0
    3.0184    1.4529   -0.0555 C   0  0  0  0  0  0  0  0  0  0  0  0
    1.7460    1.3650   -0.5867 C   0  0  0  0  0  0  0  0  0  0  0  0
    1.0639   -2.1829   -0.1479 O   0  0  0  0  0  0  0  0  0  0  0  0
   -0.4228   -0.8977   -1.6965 H   0  0  0  0  0  0  0  0  0  0  0  0
   -0.4551    0.8704   -1.8990 H   0  0  0  0  0  0  0  0  0  0  0  0
   -1.1753   -0.6424    0.6524 H   0  0  0  0  0  0  0  0  0  0  0  0
   -1.2076    1.1257    0.4499 H   0  0  0  0  0  0  0  0  0  0  0  0
   -2.8932    0.8884   -1.3532 H   0  0  0  0  0  0  0  0  0  0  0  0
   -2.8609   -0.8797   -1.1508 H   0  0  0  0  0  0  0  0  0  0  0  0
   -3.6134   -0.6245    1.1981 H   0  0  0  0  0  0  0  0  0  0  0  0
   -3.6457    1.1436    0.9956 H   0  0  0  0  0  0  0  0  0  0  0  0
   -5.3312    0.9064   -0.8075 H   0  0  0  0  0  0  0  0  0  0  0  0
   -5.2989   -0.8618   -0.6050 H   0  0  0  0  0  0  0  0  0  0  0  0
   -6.0838    1.1616    1.5414 H   0  0  0  0  0  0  0  0  0  0  0  0
   -7.2102    0.1392    0.6171 H   0  0  0  0  0  0  0  0  0  0  0  0
   -6.0515   -0.6065    1.7438 H   0  0  0  0  0  0  0  0  0  0  0  0
    3.4730   -1.7867    0.7990 H   0  0  0  0  0  0  0  0  0  0  0  0
    5.6009    0.2665    0.3102 H   0  0  0  0  0  0  0  0  0  0  0  0
    3.5285    2.4046   -0.0314 H   0  0  0  0  0  0  0  0  0  0  0  0
    1.2611    2.2491   -0.9736 H   0  0  0  0  0  0  0  0  0  0  0  0
    1.2176   -2.6919   -0.9556 H   0  0  0  0  0  0  0  0  0  0  0  0
  1  2  1  0  0  0  0
  2  3  1  0  0  0  0
  3  4  1  0  0  0  0
  4  5  1  0  0  0  0
  5  6  1  0  0  0  0
  1  7  1  0  0  0  0
  7  8  2  0  0  0  0
  8  9  1  0  0  0  0
  9 10  2  0  0  0  0
 10 11  1  0  0  0  0
 10 12  1  0  0  0  0
 12 13  2  0  0  0  0
  7 13  1  0  0  0  0
  8 14  1  0  0  0  0
  1 15  1  0  0  0  0
  1 16  1  0  0  0  0
  2 17  1  0  0  0  0
  2 18  1  0  0  0  0
  3 19  1  0  0  0  0
  3 20  1  0  0  0  0
  4 21  1  0  0  0  0
  4 22  1  0  0  0  0
  5 23  1  0  0  0  0
  5 24  1  0  0  0  0
  6 25  1  0  0  0  0
  6 26  1  0  0  0  0
  6 27  1  0  0  0  0
  9 28  1  0  0  0  0
 11 29  1  0  0  0  0
 12 30  1  0  0  0  0
 13 31  1  0  0  0  0
 14 32  1  0  0  0  0
M  END
$$$$
