C10H9NO
APtclcactv12211717213D 0   0.00000     0.00000
 
 21 22  0  0  0  0  0  0  0  0999 V2000
    0.4693    2.7066    0.0295 O   0  0  0  0  0  0  0  0  0  0  0  0
    0.6062    1.3578    0.0175 C   0  0  0  0  0  0  0  0  0  0  0  0
    1.8571    0.7681    0.0132 C   0  0  0  0  0  0  0  0  0  0  0  0
    1.9657   -0.6173    0.0013 C   0  0  0  0  0  0  0  0  0  0  0  0
    0.9086   -1.3943   -0.0061 N   0  0  0  0  0  0  0  0  0  0  0  0
   -0.3313   -0.8919   -0.0026 C   0  0  0  0  0  0  0  0  0  0  0  0
   -1.4545   -1.7365   -0.0111 C   0  0  0  0  0  0  0  0  0  0  0  0
   -2.7049   -1.1979   -0.0075 C   0  0  0  0  0  0  0  0  0  0  0  0
   -2.8925    0.1819    0.0045 C   0  0  0  0  0  0  0  0  0  0  0  0
   -1.8272    1.0313    0.0129 C   0  0  0  0  0  0  0  0  0  0  0  0
   -0.5255    0.5104    0.0150 C   0  0  0  0  0  0  0  0  0  0  0  0
    3.3360   -1.2445   -0.0038 C   0  0  0  0  0  0  0  0  0  0  0  0
    0.4303    3.1059   -0.8503 H   0  0  0  0  0  0  0  0  0  0  0  0
    2.7459    1.3817    0.0186 H   0  0  0  0  0  0  0  0  0  0  0  0
   -1.3263   -2.8088   -0.0208 H   0  0  0  0  0  0  0  0  0  0  0  0
   -3.5649   -1.8511   -0.0145 H   0  0  0  0  0  0  0  0  0  0  0  0
   -3.8949    0.5837    0.0067 H   0  0  0  0  0  0  0  0  0  0  0  0
   -1.9845    2.0997    0.0222 H   0  0  0  0  0  0  0  0  0  0  0  0
    3.6661   -1.4046    1.0226 H   0  0  0  0  0  0  0  0  0  0  0  0
    3.2960   -2.2005   -0.5259 H   0  0  0  0  0  0  0  0  0  0  0  0
    4.0369   -0.5822   -0.5118 H   0  0  0  0  0  0  0  0  0  0  0  0
  1  2  1  0  0  0  0
  2  3  2  0  0  0  0
  3  4  1  0  0  0  0
  4  5  2  0  0  0  0
  5  6  1  0  0  0  0
  6  7  2  0  0  0  0
  7  8  1  0  0  0  0
  8  9  2  0  0  0  0
  9 10  1  0  0  0  0
 10 11  2  0  0  0  0
  2 11  1  0  0  0  0
  6 11  1  0  0  0  0
  4 12  1  0  0  0  0
  1 13  1  0  0  0  0
  3 14  1  0  0  0  0
  7 15  1  0  0  0  0
  8 16  1  0  0  0  0
  9 17  1  0  0  0  0
 10 18  1  0  0  0  0
 12 19  1  0  0  0  0
 12 20  1  0  0  0  0
 12 21  1  0  0  0  0
M  END
$$$$
