C6H4N4O
APtclcactv12211716493D 0   0.00000     0.00000
 
 15 16  0  0  0  0  0  0  0  0999 V2000
    1.8365    1.9636    0.0301 O   0  0  0  0  0  0  0  0  0  0  0  0
    1.3648    0.6960    0.0171 C   0  0  0  0  0  0  0  0  0  0  0  0
    2.1924   -0.3364    0.0120 N   0  0  0  0  0  0  0  0  0  0  0  0
    1.7440   -1.5820   -0.0002 C   0  0  0  0  0  0  0  0  0  0  0  0
    0.4668   -1.8802   -0.0086 N   0  0  0  0  0  0  0  0  0  0  0  0
   -0.4587   -0.9112   -0.0044 C   0  0  0  0  0  0  0  0  0  0  0  0
   -1.7653   -1.1853   -0.0123 N   0  0  0  0  0  0  0  0  0  0  0  0
   -2.6360   -0.1993   -0.0073 C   0  0  0  0  0  0  0  0  0  0  0  0
   -2.2092    1.1294    0.0061 C   0  0  0  0  0  0  0  0  0  0  0  0
   -0.9271    1.4218    0.0140 N   0  0  0  0  0  0  0  0  0  0  0  0
   -0.0290    0.4388    0.0146 C   0  0  0  0  0  0  0  0  0  0  0  0
    1.9777    2.3398   -0.8495 H   0  0  0  0  0  0  0  0  0  0  0  0
    2.4621   -2.3886   -0.0039 H   0  0  0  0  0  0  0  0  0  0  0  0
   -3.6930   -0.4204   -0.0139 H   0  0  0  0  0  0  0  0  0  0  0  0
   -2.9391    1.9254    0.0097 H   0  0  0  0  0  0  0  0  0  0  0  0
  1  2  1  0  0  0  0
  2  3  2  0  0  0  0
  3  4  1  0  0  0  0
  4  5  2  0  0  0  0
  5  6  1  0  0  0  0
  6  7  2  0  0  0  0
  7  8  1  0  0  0  0
  8  9  2  0  0  0  0
  9 10  1  0  0  0  0
 10 11  2  0  0  0  0
  2 11  1  0  0  0  0
  6 11  1  0  0  0  0
  1 12  1  0  0  0  0
  4 13  1  0  0  0  0
  8 14  1  0  0  0  0
  9 15  1  0  0  0  0
M  END
$$$$
