C8H8N4O
APtclcactv12151716283D 0   0.00000     0.00000
 
 21 22  0  0  0  0  0  0  0  0999 V2000
    2.1681    2.1321    0.0256 O   0  0  0  0  0  0  0  0  0  0  0  0
    1.8711    0.8126    0.0152 C   0  0  0  0  0  0  0  0  0  0  0  0
    2.8301   -0.0992    0.0113 N   0  0  0  0  0  0  0  0  0  0  0  0
    2.5533   -1.3937    0.0016 C   0  0  0  0  0  0  0  0  0  0  0  0
    1.3277   -1.8611   -0.0053 N   0  0  0  0  0  0  0  0  0  0  0  0
    0.2804   -1.0253   -0.0022 C   0  0  0  0  0  0  0  0  0  0  0  0
   -0.9775   -1.4727   -0.0086 N   0  0  0  0  0  0  0  0  0  0  0  0
   -1.9729   -0.6127   -0.0047 C   0  0  0  0  0  0  0  0  0  0  0  0
   -1.7287    0.7613    0.0060 C   0  0  0  0  0  0  0  0  0  0  0  0
   -0.4975    1.2235    0.0124 N   0  0  0  0  0  0  0  0  0  0  0  0
    0.5246    0.3702    0.0141 C   0  0  0  0  0  0  0  0  0  0  0  0
   -2.8873    1.7250    0.0098 C   0  0  0  0  0  0  0  0  0  0  0  0
   -3.3930   -1.1169   -0.0125 C   0  0  0  0  0  0  0  0  0  0  0  0
    2.2570    2.5222   -0.8548 H   0  0  0  0  0  0  0  0  0  0  0  0
    3.3733   -2.0965   -0.0012 H   0  0  0  0  0  0  0  0  0  0  0  0
   -3.1695    1.9498    1.0383 H   0  0  0  0  0  0  0  0  0  0  0  0
   -2.5961    2.6453   -0.4965 H   0  0  0  0  0  0  0  0  0  0  0  0
   -3.7343    1.2768   -0.5097 H   0  0  0  0  0  0  0  0  0  0  0  0
   -3.7382   -1.2464    1.0133 H   0  0  0  0  0  0  0  0  0  0  0  0
   -4.0318   -0.3959   -0.5225 H   0  0  0  0  0  0  0  0  0  0  0  0
   -3.4362   -2.0732   -0.5338 H   0  0  0  0  0  0  0  0  0  0  0  0
  1  2  1  0  0  0  0
  2  3  2  0  0  0  0
  3  4  1  0  0  0  0
  4  5  2  0  0  0  0
  5  6  1  0  0  0  0
  6  7  2  0  0  0  0
  7  8  1  0  0  0  0
  8  9  2  0  0  0  0
  9 10  1  0  0  0  0
 10 11  2  0  0  0  0
  2 11  1  0  0  0  0
  6 11  1  0  0  0  0
  9 12  1  0  0  0  0
  8 13  1  0  0  0  0
  1 14  1  0  0  0  0
  4 15  1  0  0  0  0
 12 16  1  0  0  0  0
 12 17  1  0  0  0  0
 12 18  1  0  0  0  0
 13 19  1  0  0  0  0
 13 20  1  0  0  0  0
 13 21  1  0  0  0  0
M  END
$$$$
