C7H5NOS
APtclcactv12151716133D 0   0.00000     0.00000
 
 15 15  0  0  0  0  0  0  0  0999 V2000
    3.7672   -0.8389   -0.0253 O   0  0  0  0  0  0  0  0  0  0  0  0
    2.5064   -0.3420   -0.0171 C   0  0  0  0  0  0  0  0  0  0  0  0
    2.3065    1.0407   -0.0083 C   0  0  0  0  0  0  0  0  0  0  0  0
    1.0450    1.5512   -0.0005 C   0  0  0  0  0  0  0  0  0  0  0  0
   -0.0693    0.6732   -0.0014 C   0  0  0  0  0  0  0  0  0  0  0  0
    0.1463   -0.7290   -0.0104 C   0  0  0  0  0  0  0  0  0  0  0  0
    1.4168   -1.2164   -0.0234 C   0  0  0  0  0  0  0  0  0  0  0  0
   -1.3019    1.1590    0.0066 N   0  0  0  0  0  0  0  0  0  0  0  0
   -2.2803    0.3810    0.0058 C   0  0  0  0  0  0  0  0  0  0  0  0
   -3.4963   -0.5858    0.0048 S   0  0  0  0  0  0  0  0  0  0  0  0
    4.1369   -0.9882    0.8557 H   0  0  0  0  0  0  0  0  0  0  0  0
    3.1564    1.7071   -0.0073 H   0  0  0  0  0  0  0  0  0  0  0  0
    0.8929    2.6204    0.0067 H   0  0  0  0  0  0  0  0  0  0  0  0
   -0.6945   -1.4069   -0.0107 H   0  0  0  0  0  0  0  0  0  0  0  0
    1.5835   -2.2834   -0.0303 H   0  0  0  0  0  0  0  0  0  0  0  0
  1  2  1  0  0  0  0
  2  3  2  0  0  0  0
  3  4  1  0  0  0  0
  4  5  2  0  0  0  0
  5  6  1  0  0  0  0
  6  7  2  0  0  0  0
  2  7  1  0  0  0  0
  5  8  1  0  0  0  0
  8  9  2  0  0  0  0
  9 10  2  0  0  0  0
  1 11  1  0  0  0  0
  3 12  1  0  0  0  0
  4 13  1  0  0  0  0
  6 14  1  0  0  0  0
  7 15  1  0  0  0  0
M  END
$$$$
