C7H4INS
APtclcactv12151716123D 0   0.00000     0.00000
 
 14 14  0  0  0  0  0  0  0  0999 V2000
   -2.6026   -0.2167   -0.0003 I   0  0  0  0  0  0  0  0  0  0  0  0
   -0.5566    0.2338   -0.0005 C   0  0  0  0  0  0  0  0  0  0  0  0
   -0.1444    1.5616    0.0002 C   0  0  0  0  0  0  0  0  0  0  0  0
    1.1833    1.8704    0.0005 C   0  0  0  0  0  0  0  0  0  0  0  0
    2.1459    0.8287    0.0002 C   0  0  0  0  0  0  0  0  0  0  0  0
    1.7098   -0.5209   -0.0005 C   0  0  0  0  0  0  0  0  0  0  0  0
    0.3752   -0.7982    0.0045 C   0  0  0  0  0  0  0  0  0  0  0  0
    3.4399    1.1136    0.0001 N   0  0  0  0  0  0  0  0  0  0  0  0
    4.2830    0.1908   -0.0002 C   0  0  0  0  0  0  0  0  0  0  0  0
    5.3309   -0.9561   -0.0006 S   0  0  0  0  0  0  0  0  0  0  0  0
   -0.8799    2.3525    0.0001 H   0  0  0  0  0  0  0  0  0  0  0  0
    1.5006    2.9027    0.0007 H   0  0  0  0  0  0  0  0  0  0  0  0
    2.4312   -1.3245   -0.0008 H   0  0  0  0  0  0  0  0  0  0  0  0
    0.0398   -1.8248    0.0043 H   0  0  0  0  0  0  0  0  0  0  0  0
  1  2  1  0  0  0  0
  2  3  2  0  0  0  0
  3  4  1  0  0  0  0
  4  5  2  0  0  0  0
  5  6  1  0  0  0  0
  6  7  2  0  0  0  0
  2  7  1  0  0  0  0
  5  8  1  0  0  0  0
  8  9  2  0  0  0  0
  9 10  2  0  0  0  0
  3 11  1  0  0  0  0
  4 12  1  0  0  0  0
  6 13  1  0  0  0  0
  7 14  1  0  0  0  0
M  END
$$$$
