C8H6INS
APtclcactv12151716263D 0   0.00000     0.00000
 
 17 17  0  0  0  0  0  0  0  0999 V2000
   -2.9848   -0.2598    0.1084 I   0  0  0  0  0  0  0  0  0  0  0  0
   -0.9612    0.2216   -0.1418 C   0  0  0  0  0  0  0  0  0  0  0  0
   -0.4815    1.4426    0.2957 C   0  0  0  0  0  0  0  0  0  0  0  0
    0.8537    1.7597    0.1309 C   0  0  0  0  0  0  0  0  0  0  0  0
    1.7095    0.8567   -0.4717 C   0  0  0  0  0  0  0  0  0  0  0  0
    3.1651    1.2027   -0.6513 C   0  0  0  0  0  0  0  0  0  0  0  0
    3.9206    0.7609    0.5236 N   0  0  0  0  0  0  0  0  0  0  0  0
    4.8462   -0.0694    0.3955 C   0  0  0  0  0  0  0  0  0  0  0  0
    5.9965   -1.1013    0.2364 S   0  0  0  0  0  0  0  0  0  0  0  0
    1.2302   -0.3640   -0.9092 C   0  0  0  0  0  0  0  0  0  0  0  0
   -0.1037   -0.6840   -0.7395 C   0  0  0  0  0  0  0  0  0  0  0  0
   -1.1502    2.1485    0.7659 H   0  0  0  0  0  0  0  0  0  0  0  0
    1.2284    2.7133    0.4726 H   0  0  0  0  0  0  0  0  0  0  0  0
    3.5505    0.7029   -1.5400 H   0  0  0  0  0  0  0  0  0  0  0  0
    3.2706    2.2814   -0.7666 H   0  0  0  0  0  0  0  0  0  0  0  0
    1.8990   -1.0693   -1.3800 H   0  0  0  0  0  0  0  0  0  0  0  0
   -0.4780   -1.6378   -1.0810 H   0  0  0  0  0  0  0  0  0  0  0  0
  1  2  1  0  0  0  0
  2  3  2  0  0  0  0
  3  4  1  0  0  0  0
  4  5  2  0  0  0  0
  5  6  1  0  0  0  0
  6  7  1  0  0  0  0
  7  8  2  0  0  0  0
  8  9  2  0  0  0  0
  5 10  1  0  0  0  0
 10 11  2  0  0  0  0
  2 11  1  0  0  0  0
  3 12  1  0  0  0  0
  4 13  1  0  0  0  0
  6 14  1  0  0  0  0
  6 15  1  0  0  0  0
 10 16  1  0  0  0  0
 11 17  1  0  0  0  0
M  END
$$$$
