C7H6N4
APtclcactv12151716153D 0   0.00000     0.00000
 
 17 18  0  0  0  0  0  0  0  0999 V2000
    1.9012    2.1152   -0.0010 C   0  0  0  0  0  0  0  0  0  0  0  0
    1.3780    0.7020   -0.0005 C   0  0  0  0  0  0  0  0  0  0  0  0
    2.2048   -0.3232   -0.0007 N   0  0  0  0  0  0  0  0  0  0  0  0
    1.7620   -1.5721   -0.0003 C   0  0  0  0  0  0  0  0  0  0  0  0
    0.4859   -1.8741   -0.0002 N   0  0  0  0  0  0  0  0  0  0  0  0
   -0.4384   -0.9061   -0.0001 C   0  0  0  0  0  0  0  0  0  0  0  0
   -1.7456   -1.1800   -0.0005 N   0  0  0  0  0  0  0  0  0  0  0  0
   -2.6156   -0.1944   -0.0006 C   0  0  0  0  0  0  0  0  0  0  0  0
   -2.1888    1.1361   -0.0008 C   0  0  0  0  0  0  0  0  0  0  0  0
   -0.9079    1.4295   -0.0005 N   0  0  0  0  0  0  0  0  0  0  0  0
   -0.0075    0.4455    0.0060 C   0  0  0  0  0  0  0  0  0  0  0  0
    2.0269    2.4558   -1.0287 H   0  0  0  0  0  0  0  0  0  0  0  0
    1.1930    2.7650    0.5131 H   0  0  0  0  0  0  0  0  0  0  0  0
    2.8622    2.1471    0.5124 H   0  0  0  0  0  0  0  0  0  0  0  0
    2.4832   -2.3761   -0.0005 H   0  0  0  0  0  0  0  0  0  0  0  0
   -3.6727   -0.4158   -0.0010 H   0  0  0  0  0  0  0  0  0  0  0  0
   -2.9193    1.9316   -0.0016 H   0  0  0  0  0  0  0  0  0  0  0  0
  1  2  1  0  0  0  0
  2  3  2  0  0  0  0
  3  4  1  0  0  0  0
  4  5  2  0  0  0  0
  5  6  1  0  0  0  0
  6  7  2  0  0  0  0
  7  8  1  0  0  0  0
  8  9  2  0  0  0  0
  9 10  1  0  0  0  0
 10 11  2  0  0  0  0
  2 11  1  0  0  0  0
  6 11  1  0  0  0  0
  1 12  1  0  0  0  0
  1 13  1  0  0  0  0
  1 14  1  0  0  0  0
  4 15  1  0  0  0  0
  8 16  1  0  0  0  0
  9 17  1  0  0  0  0
M  END
$$$$
