C6H14O
APtclcactv12211717003D 0   0.00000     0.00000
 
 21 20  0  0  0  0  0  0  0  0999 V2000
    1.5451   -1.0231    0.9801 C   0  0  0  0  0  0  0  0  0  0  0  0
    1.2604   -0.1345   -0.2324 C   0  0  0  0  0  0  0  0  0  0  0  0
    0.0386    0.7412    0.0527 C   0  0  0  0  0  0  0  0  0  0  0  0
   -1.1995   -0.1448    0.2049 C   0  0  0  0  0  0  0  0  0  0  0  0
   -2.3963    0.7169    0.6126 C   0  0  0  0  0  0  0  0  0  0  0  0
   -1.4791   -0.7903   -1.0389 O   0  0  0  0  0  0  0  0  0  0  0  0
    2.4733    0.7565   -0.5078 C   0  0  0  0  0  0  0  0  0  0  0  0
    1.7416   -0.3976    1.8508 H   0  0  0  0  0  0  0  0  0  0  0  0
    0.6810   -1.6579    1.1762 H   0  0  0  0  0  0  0  0  0  0  0  0
    2.4156   -1.6470    0.7769 H   0  0  0  0  0  0  0  0  0  0  0  0
    1.0639   -0.7600   -1.1032 H   0  0  0  0  0  0  0  0  0  0  0  0
    0.2000    1.3013    0.9738 H   0  0  0  0  0  0  0  0  0  0  0  0
   -0.1112    1.4361   -0.7736 H   0  0  0  0  0  0  0  0  0  0  0  0
   -1.0157   -0.8974    0.9716 H   0  0  0  0  0  0  0  0  0  0  0  0
   -3.2783    0.0857    0.7210 H   0  0  0  0  0  0  0  0  0  0  0  0
   -2.1830    1.2093    1.5613 H   0  0  0  0  0  0  0  0  0  0  0  0
   -2.5801    1.4695   -0.1541 H   0  0  0  0  0  0  0  0  0  0  0  0
   -2.2531   -1.3695   -1.0162 H   0  0  0  0  0  0  0  0  0  0  0  0
    3.3438    0.1327   -0.7109 H   0  0  0  0  0  0  0  0  0  0  0  0
    2.2705    1.3896   -1.3716 H   0  0  0  0  0  0  0  0  0  0  0  0
    2.6698    1.3820    0.3630 H   0  0  0  0  0  0  0  0  0  0  0  0
  1  2  1  0  0  0  0
  2  3  1  0  0  0  0
  3  4  1  0  0  0  0
  4  5  1  0  0  0  0
  4  6  1  0  0  0  0
  2  7  1  0  0  0  0
  1  8  1  0  0  0  0
  1  9  1  0  0  0  0
  1 10  1  0  0  0  0
  2 11  1  0  0  0  0
  3 12  1  0  0  0  0
  3 13  1  0  0  0  0
  4 14  1  0  0  0  0
  5 15  1  0  0  0  0
  5 16  1  0  0  0  0
  5 17  1  0  0  0  0
  6 18  1  0  0  0  0
  7 19  1  0  0  0  0
  7 20  1  0  0  0  0
  7 21  1  0  0  0  0
M  END
$$$$
