C9H8O4
APtclcactv12151716433D 0   0.00000     0.00000
 
 21 21  0  0  0  0  0  0  0  0999 V2000
    3.9456    0.0710   -0.0295 C   0  0  0  0  0  0  0  0  0  0  0  0
    2.4681   -0.2237    0.0050 C   0  0  0  0  0  0  0  0  0  0  0  0
    1.5586    0.8158   -0.0585 C   0  0  0  0  0  0  0  0  0  0  0  0
    0.1928    0.5483   -0.0275 C   0  0  0  0  0  0  0  0  0  0  0  0
   -0.2529   -0.7839    0.0687 C   0  0  0  0  0  0  0  0  0  0  0  0
   -1.7003   -1.0833    0.1022 C   0  0  0  0  0  0  0  0  0  0  0  0
   -2.4098   -0.5585    0.9365 O   0  0  0  0  0  0  0  0  0  0  0  0
   -2.2321   -1.9383   -0.7927 O   0  0  0  0  0  0  0  0  0  0  0  0
    0.6777   -1.8173    0.1316 C   0  0  0  0  0  0  0  0  0  0  0  0
    2.0303   -1.5327    0.0941 C   0  0  0  0  0  0  0  0  0  0  0  0
   -0.7838    1.6563   -0.0946 C   0  0  0  0  0  0  0  0  0  0  0  0
   -1.9710    1.4150   -0.1802 O   0  0  0  0  0  0  0  0  0  0  0  0
   -0.3568    2.9334   -0.0609 O   0  0  0  0  0  0  0  0  0  0  0  0
    4.3116    0.2132    0.9874 H   0  0  0  0  0  0  0  0  0  0  0  0
    4.4720   -0.7641   -0.4916 H   0  0  0  0  0  0  0  0  0  0  0  0
    4.1220    0.9771   -0.6091 H   0  0  0  0  0  0  0  0  0  0  0  0
    1.9077    1.8352   -0.1318 H   0  0  0  0  0  0  0  0  0  0  0  0
   -3.1830   -2.1027   -0.7313 H   0  0  0  0  0  0  0  0  0  0  0  0
    0.3431   -2.8415    0.2054 H   0  0  0  0  0  0  0  0  0  0  0  0
    2.7494   -2.3370    0.1431 H   0  0  0  0  0  0  0  0  0  0  0  0
   -1.0325    3.6236   -0.1075 H   0  0  0  0  0  0  0  0  0  0  0  0
  1  2  1  0  0  0  0
  2  3  1  0  0  0  0
  3  4  2  0  0  0  0
  4  5  1  0  0  0  0
  5  6  1  0  0  0  0
  6  7  2  0  0  0  0
  6  8  1  0  0  0  0
  5  9  2  0  0  0  0
  9 10  1  0  0  0  0
  2 10  2  0  0  0  0
  4 11  1  0  0  0  0
 11 12  2  0  0  0  0
 11 13  1  0  0  0  0
  1 14  1  0  0  0  0
  1 15  1  0  0  0  0
  1 16  1  0  0  0  0
  3 17  1  0  0  0  0
  8 18  1  0  0  0  0
  9 19  1  0  0  0  0
 10 20  1  0  0  0  0
 13 21  1  0  0  0  0
M  END
$$$$
