C8H8O
APtclcactv12151716283D 0   0.00000     0.00000
 
 17 17  0  0  0  0  0  0  0  0999 V2000
    3.2840   -0.2769    0.0011 C   0  0  0  0  0  0  0  0  0  0  0  0
    1.7886   -0.0902    0.0010 C   0  0  0  0  0  0  0  0  0  0  0  0
    1.2542    1.1865   -0.0004 C   0  0  0  0  0  0  0  0  0  0  0  0
   -0.1130    1.3656   -0.0006 C   0  0  0  0  0  0  0  0  0  0  0  0
   -0.9602    0.2529    0.0004 C   0  0  0  0  0  0  0  0  0  0  0  0
   -2.4205    0.4352   -0.0002 C   0  0  0  0  0  0  0  0  0  0  0  0
   -3.1522   -0.5318    0.0005 O   0  0  0  0  0  0  0  0  0  0  0  0
   -0.4125   -1.0339    0.0014 C   0  0  0  0  0  0  0  0  0  0  0  0
    0.9568   -1.1964   -0.0034 C   0  0  0  0  0  0  0  0  0  0  0  0
    3.6446   -0.3207    1.0288 H   0  0  0  0  0  0  0  0  0  0  0  0
    3.5342   -1.2056   -0.5116 H   0  0  0  0  0  0  0  0  0  0  0  0
    3.7547    0.5606   -0.5137 H   0  0  0  0  0  0  0  0  0  0  0  0
    1.9098    2.0447   -0.0011 H   0  0  0  0  0  0  0  0  0  0  0  0
   -0.5285    2.3625   -0.0010 H   0  0  0  0  0  0  0  0  0  0  0  0
   -2.8405    1.4301   -0.0014 H   0  0  0  0  0  0  0  0  0  0  0  0
   -1.0603   -1.8981    0.0024 H   0  0  0  0  0  0  0  0  0  0  0  0
    1.3813   -2.1895   -0.0029 H   0  0  0  0  0  0  0  0  0  0  0  0
  1  2  1  0  0  0  0
  2  3  2  0  0  0  0
  3  4  1  0  0  0  0
  4  5  2  0  0  0  0
  5  6  1  0  0  0  0
  6  7  2  0  0  0  0
  5  8  1  0  0  0  0
  8  9  2  0  0  0  0
  2  9  1  0  0  0  0
  1 10  1  0  0  0  0
  1 11  1  0  0  0  0
  1 12  1  0  0  0  0
  3 13  1  0  0  0  0
  4 14  1  0  0  0  0
  6 15  1  0  0  0  0
  8 16  1  0  0  0  0
  9 17  1  0  0  0  0
M  END
$$$$
