C14H21NO3
APtclcactv12211717043D 0   0.00000     0.00000
 
 39 39  0  0  0  0  0  0  0  0999 V2000
    4.0514   -1.7420    0.6011 C   0  0  0  0  0  0  0  0  0  0  0  0
    3.9835   -2.9089   -0.3861 C   0  0  0  0  0  0  0  0  0  0  0  0
    3.3165   -0.5939    0.0534 N   0  0  0  0  0  0  0  0  0  0  0  0
    3.1564    0.4595    1.0646 C   0  0  0  0  0  0  0  0  0  0  0  0
    2.0780    1.4445    0.6085 C   0  0  0  0  0  0  0  0  0  0  0  0
    0.7998    0.7602    0.5295 O   0  0  0  0  0  0  0  0  0  0  0  0
   -0.2626    1.4918    0.1398 C   0  0  0  0  0  0  0  0  0  0  0  0
   -1.5927    0.8634    0.0367 C   0  0  0  0  0  0  0  0  0  0  0  0
   -2.6962    1.6205   -0.3674 C   0  0  0  0  0  0  0  0  0  0  0  0
   -3.9362    1.0299   -0.4623 C   0  0  0  0  0  0  0  0  0  0  0  0
   -4.0919   -0.3173   -0.1568 C   0  0  0  0  0  0  0  0  0  0  0  0
   -2.9972   -1.0738    0.2455 C   0  0  0  0  0  0  0  0  0  0  0  0
   -1.7525   -0.4925    0.3374 C   0  0  0  0  0  0  0  0  0  0  0  0
   -5.3159   -0.8955   -0.2512 O   0  0  0  0  0  0  0  0  0  0  0  0
   -5.4049   -2.2833    0.0774 C   0  0  0  0  0  0  0  0  0  0  0  0
   -0.1246    2.6692   -0.1268 O   0  0  0  0  0  0  0  0  0  0  0  0
    3.9769   -0.0720   -1.1506 C   0  0  0  0  0  0  0  0  0  0  0  0
    5.3824    0.4140   -0.7912 C   0  0  0  0  0  0  0  0  0  0  0  0
    3.6037   -2.0413    1.5488 H   0  0  0  0  0  0  0  0  0  0  0  0
    5.0926   -1.4632    0.7631 H   0  0  0  0  0  0  0  0  0  0  0  0
    2.9423   -3.1878   -0.5481 H   0  0  0  0  0  0  0  0  0  0  0  0
    4.4312   -2.6096   -1.3338 H   0  0  0  0  0  0  0  0  0  0  0  0
    4.5288   -3.7608    0.0203 H   0  0  0  0  0  0  0  0  0  0  0  0
    2.8610    0.0109    2.0130 H   0  0  0  0  0  0  0  0  0  0  0  0
    4.1011    0.9882    1.1913 H   0  0  0  0  0  0  0  0  0  0  0  0
    2.0080    2.2636    1.3242 H   0  0  0  0  0  0  0  0  0  0  0  0
    2.3393    1.8406   -0.3727 H   0  0  0  0  0  0  0  0  0  0  0  0
   -2.5762    2.6672   -0.6046 H   0  0  0  0  0  0  0  0  0  0  0  0
   -4.7894    1.6141   -0.7741 H   0  0  0  0  0  0  0  0  0  0  0  0
   -3.1225   -2.1201    0.4822 H   0  0  0  0  0  0  0  0  0  0  0  0
   -0.9025   -1.0810    0.6497 H   0  0  0  0  0  0  0  0  0  0  0  0
   -4.7584   -2.8563   -0.5873 H   0  0  0  0  0  0  0  0  0  0  0  0
   -5.0890   -2.4333    1.1098 H   0  0  0  0  0  0  0  0  0  0  0  0
   -6.4353   -2.6190   -0.0396 H   0  0  0  0  0  0  0  0  0  0  0  0
    4.0458   -0.8619   -1.8985 H   0  0  0  0  0  0  0  0  0  0  0  0
    3.3967    0.7588   -1.5519 H   0  0  0  0  0  0  0  0  0  0  0  0
    5.8785    0.7861   -1.6877 H   0  0  0  0  0  0  0  0  0  0  0  0
    5.3128    1.2152   -0.0555 H   0  0  0  0  0  0  0  0  0  0  0  0
    5.9574   -0.4129   -0.3745 H   0  0  0  0  0  0  0  0  0  0  0  0
  1  2  1  0  0  0  0
  1  3  1  0  0  0  0
  3  4  1  0  0  0  0
  4  5  1  0  0  0  0
  5  6  1  0  0  0  0
  6  7  1  0  0  0  0
  7  8  1  0  0  0  0
  8  9  2  0  0  0  0
  9 10  1  0  0  0  0
 10 11  2  0  0  0  0
 11 12  1  0  0  0  0
 12 13  2  0  0  0  0
  8 13  1  0  0  0  0
 11 14  1  0  0  0  0
 14 15  1  0  0  0  0
  7 16  2  0  0  0  0
  3 17  1  0  0  0  0
 17 18  1  0  0  0  0
  1 19  1  0  0  0  0
  1 20  1  0  0  0  0
  2 21  1  0  0  0  0
  2 22  1  0  0  0  0
  2 23  1  0  0  0  0
  4 24  1  0  0  0  0
  4 25  1  0  0  0  0
  5 26  1  0  0  0  0
  5 27  1  0  0  0  0
  9 28  1  0  0  0  0
 10 29  1  0  0  0  0
 12 30  1  0  0  0  0
 13 31  1  0  0  0  0
 15 32  1  0  0  0  0
 15 33  1  0  0  0  0
 15 34  1  0  0  0  0
 17 35  1  0  0  0  0
 17 36  1  0  0  0  0
 18 37  1  0  0  0  0
 18 38  1  0  0  0  0
 18 39  1  0  0  0  0
M  END
$$$$
