C10H22
APtclcactv12211717303D 0   0.00000     0.00000
 
 32 31  0  0  0  0  0  0  0  0999 V2000
    1.1880    1.6485    0.4047 C   0  0  0  0  0  0  0  0  0  0  0  0
    1.1295    0.2572   -0.2290 C   0  0  0  0  0  0  0  0  0  0  0  0
    2.3616   -0.5468    0.1911 C   0  0  0  0  0  0  0  0  0  0  0  0
    3.6187    0.1080   -0.3852 C   0  0  0  0  0  0  0  0  0  0  0  0
    4.8508   -0.6960    0.0349 C   0  0  0  0  0  0  0  0  0  0  0  0
   -0.1350   -0.4646    0.2410 C   0  0  0  0  0  0  0  0  0  0  0  0
   -1.3683    0.2721   -0.2855 C   0  0  0  0  0  0  0  0  0  0  0  0
   -2.6328   -0.4496    0.1845 C   0  0  0  0  0  0  0  0  0  0  0  0
   -3.8661    0.2871   -0.3419 C   0  0  0  0  0  0  0  0  0  0  0  0
   -5.1306   -0.4347    0.1281 C   0  0  0  0  0  0  0  0  0  0  0  0
    2.0889    2.1627    0.0699 H   0  0  0  0  0  0  0  0  0  0  0  0
    0.3102    2.2213    0.1054 H   0  0  0  0  0  0  0  0  0  0  0  0
    1.2066    1.5528    1.4903 H   0  0  0  0  0  0  0  0  0  0  0  0
    1.1110    0.3529   -1.3147 H   0  0  0  0  0  0  0  0  0  0  0  0
    2.4287   -0.5671    1.2788 H   0  0  0  0  0  0  0  0  0  0  0  0
    2.2769   -1.5656   -0.1868 H   0  0  0  0  0  0  0  0  0  0  0  0
    3.5516    0.1283   -1.4729 H   0  0  0  0  0  0  0  0  0  0  0  0
    3.7034    1.1269   -0.0073 H   0  0  0  0  0  0  0  0  0  0  0  0
    4.9178   -0.7163    1.1227 H   0  0  0  0  0  0  0  0  0  0  0  0
    4.7660   -1.7148   -0.3430 H   0  0  0  0  0  0  0  0  0  0  0  0
    5.7463   -0.2295   -0.3756 H   0  0  0  0  0  0  0  0  0  0  0  0
   -0.1325   -1.4863   -0.1386 H   0  0  0  0  0  0  0  0  0  0  0  0
   -0.1597   -0.4819    1.3306 H   0  0  0  0  0  0  0  0  0  0  0  0
   -1.3707    1.2939    0.0942 H   0  0  0  0  0  0  0  0  0  0  0  0
   -1.3435    0.2894   -1.3751 H   0  0  0  0  0  0  0  0  0  0  0  0
   -2.6303   -1.4714   -0.1951 H   0  0  0  0  0  0  0  0  0  0  0  0
   -2.6575   -0.4670    1.2741 H   0  0  0  0  0  0  0  0  0  0  0  0
   -3.8685    1.3088    0.0377 H   0  0  0  0  0  0  0  0  0  0  0  0
   -3.8413    0.3044   -1.4315 H   0  0  0  0  0  0  0  0  0  0  0  0
   -5.1281   -1.4564   -0.2516 H   0  0  0  0  0  0  0  0  0  0  0  0
   -5.1553   -0.4520    1.2177 H   0  0  0  0  0  0  0  0  0  0  0  0
   -6.0092    0.0902   -0.2470 H   0  0  0  0  0  0  0  0  0  0  0  0
  1  2  1  0  0  0  0
  2  3  1  0  0  0  0
  3  4  1  0  0  0  0
  4  5  1  0  0  0  0
  2  6  1  0  0  0  0
  6  7  1  0  0  0  0
  7  8  1  0  0  0  0
  8  9  1  0  0  0  0
  9 10  1  0  0  0  0
  1 11  1  0  0  0  0
  1 12  1  0  0  0  0
  1 13  1  0  0  0  0
  2 14  1  0  0  0  0
  3 15  1  0  0  0  0
  3 16  1  0  0  0  0
  4 17  1  0  0  0  0
  4 18  1  0  0  0  0
  5 19  1  0  0  0  0
  5 20  1  0  0  0  0
  5 21  1  0  0  0  0
  6 22  1  0  0  0  0
  6 23  1  0  0  0  0
  7 24  1  0  0  0  0
  7 25  1  0  0  0  0
  8 26  1  0  0  0  0
  8 27  1  0  0  0  0
  9 28  1  0  0  0  0
  9 29  1  0  0  0  0
 10 30  1  0  0  0  0
 10 31  1  0  0  0  0
 10 32  1  0  0  0  0
M  END
$$$$
