C8H7N2O4
APtclcactv12151716283D 0   0.00000     0.00000
 
 21 21  0  0  0  0  0  0  0  0999 V2000
    3.7859    0.1822    0.0008 N   0  3  0  0  0  0  0  0  0  0  0  0
    4.5235   -0.7870    0.0012 O   0  0  0  0  0  0  0  0  0  0  0  0
    4.2564    1.3056   -0.0040 O   0  5  0  0  0  0  0  0  0  0  0  0
    2.3177   -0.0051    0.0000 C   0  0  0  0  0  0  0  0  0  0  0  0
    1.7851   -1.2813   -0.0003 C   0  0  0  0  0  0  0  0  0  0  0  0
    0.4157   -1.4597   -0.0006 C   0  0  0  0  0  0  0  0  0  0  0  0
   -0.4270   -0.3554   -0.0005 C   0  0  0  0  0  0  0  0  0  0  0  0
   -1.8125   -0.5322   -0.0004 N   0  0  0  0  0  0  0  0  0  0  0  0
   -2.6997    0.6336   -0.0004 C   0  0  0  0  0  0  0  0  0  0  0  0
   -4.1346    0.1729   -0.0002 C   0  0  0  0  0  0  0  0  0  0  0  0
   -4.3922   -1.0188   -0.0000 O   0  0  0  0  0  0  0  0  0  0  0  0
   -5.0378    0.9918   -0.0001 O   0  5  0  0  0  0  0  0  0  0  0  0
    0.1113    0.9251   -0.0003 C   0  0  0  0  0  0  0  0  0  0  0  0
    1.4817    1.0964    0.0053 C   0  0  0  0  0  0  0  0  0  0  0  0
    2.4409   -2.1395   -0.0006 H   0  0  0  0  0  0  0  0  0  0  0  0
    0.0004   -2.4567   -0.0011 H   0  0  0  0  0  0  0  0  0  0  0  0
   -2.1873   -1.4269   -0.0003 H   0  0  0  0  0  0  0  0  0  0  0  0
   -2.5108    1.2340    0.8895 H   0  0  0  0  0  0  0  0  0  0  0  0
   -2.5110    1.2338   -0.8904 H   0  0  0  0  0  0  0  0  0  0  0  0
   -0.5411    1.7858   -0.0003 H   0  0  0  0  0  0  0  0  0  0  0  0
    1.9009    2.0917    0.0056 H   0  0  0  0  0  0  0  0  0  0  0  0
  1  2  2  0  0  0  0
  1  3  1  0  0  0  0
  1  4  1  0  0  0  0
  4  5  2  0  0  0  0
  5  6  1  0  0  0  0
  6  7  2  0  0  0  0
  7  8  1  0  0  0  0
  8  9  1  0  0  0  0
  9 10  1  0  0  0  0
 10 11  2  0  0  0  0
 10 12  1  0  0  0  0
  7 13  1  0  0  0  0
 13 14  2  0  0  0  0
  4 14  1  0  0  0  0
  5 15  1  0  0  0  0
  6 16  1  0  0  0  0
  8 17  1  0  0  0  0
  9 18  1  0  0  0  0
  9 19  1  0  0  0  0
 13 20  1  0  0  0  0
 14 21  1  0  0  0  0
M  CHG  3   1   1   3  -1  12  -1
M  END
$$$$
