C12H6Cl3NO3
APtclcactv12111704523D 0   0.00000     0.00000
 
 25 26  0  0  0  0  0  0  0  0999 V2000
   -1.0282   -2.7045    0.9381 Cl  0  0  0  0  0  0  0  0  0  0  0  0
   -1.7509   -1.2007    0.4588 C   0  0  0  0  0  0  0  0  0  0  0  0
   -1.1714    0.0014    0.8407 C   0  0  0  0  0  0  0  0  0  0  0  0
   -1.7514    1.2022    0.4554 C   0  0  0  0  0  0  0  0  0  0  0  0
   -2.9044    1.1984   -0.3074 C   0  0  0  0  0  0  0  0  0  0  0  0
   -3.4802   -0.0011   -0.6869 C   0  0  0  0  0  0  0  0  0  0  0  0
   -2.9011   -1.1994   -0.3085 C   0  0  0  0  0  0  0  0  0  0  0  0
   -4.9281   -0.0027   -1.6447 Cl  0  0  0  0  0  0  0  0  0  0  0  0
   -1.0298    2.7076    0.9316 Cl  0  0  0  0  0  0  0  0  0  0  0  0
   -0.0378    0.0026    1.5912 O   0  0  0  0  0  0  0  0  0  0  0  0
    1.1564    0.0017    0.9430 C   0  0  0  0  0  0  0  0  0  0  0  0
    2.3402    0.0029    1.6669 C   0  0  0  0  0  0  0  0  0  0  0  0
    3.5529    0.0020    1.0055 C   0  0  0  0  0  0  0  0  0  0  0  0
    3.5878   -0.0000   -0.3768 C   0  0  0  0  0  0  0  0  0  0  0  0
    2.4097   -0.0008   -1.1006 C   0  0  0  0  0  0  0  0  0  0  0  0
    1.1943   -0.0062   -0.4441 C   0  0  0  0  0  0  0  0  0  0  0  0
    4.8888   -0.0010   -1.0829 N   0  3  0  0  0  0  0  0  0  0  0  0
    5.9272    0.0001   -0.4464 O   0  0  0  0  0  0  0  0  0  0  0  0
    4.9208   -0.0028   -2.3005 O   0  5  0  0  0  0  0  0  0  0  0  0
   -3.3562    2.1325   -0.6071 H   0  0  0  0  0  0  0  0  0  0  0  0
   -3.3521   -2.1345   -0.6061 H   0  0  0  0  0  0  0  0  0  0  0  0
    2.3134    0.0049    2.7466 H   0  0  0  0  0  0  0  0  0  0  0  0
    4.4745    0.0033    1.5685 H   0  0  0  0  0  0  0  0  0  0  0  0
    2.4398   -0.0017   -2.1802 H   0  0  0  0  0  0  0  0  0  0  0  0
    0.2744   -0.0071   -1.0099 H   0  0  0  0  0  0  0  0  0  0  0  0
  1  2  1  0  0  0  0
  2  3  2  0  0  0  0
  3  4  1  0  0  0  0
  4  5  2  0  0  0  0
  5  6  1  0  0  0  0
  6  7  2  0  0  0  0
  2  7  1  0  0  0  0
  6  8  1  0  0  0  0
  4  9  1  0  0  0  0
  3 10  1  0  0  0  0
 10 11  1  0  0  0  0
 11 12  2  0  0  0  0
 12 13  1  0  0  0  0
 13 14  2  0  0  0  0
 14 15  1  0  0  0  0
 15 16  2  0  0  0  0
 11 16  1  0  0  0  0
 14 17  1  0  0  0  0
 17 18  2  0  0  0  0
 17 19  1  0  0  0  0
  5 20  1  0  0  0  0
  7 21  1  0  0  0  0
 12 22  1  0  0  0  0
 13 23  1  0  0  0  0
 15 24  1  0  0  0  0
 16 25  1  0  0  0  0
M  CHG  2  17   1  19  -1
M  END
$$$$
