C17H28
APtclcactv12211717153D 0   0.00000     0.00000
 
 45 45  0  0  0  0  0  0  0  0999 V2000
    1.8414    0.4846   -0.1156 C   0  0  0  0  0  0  0  0  0  0  0  0
    1.9970    1.3056   -1.2167 C   0  0  0  0  0  0  0  0  0  0  0  0
    2.3269    2.6370   -1.0451 C   0  0  0  0  0  0  0  0  0  0  0  0
    2.5007    3.1474    0.2278 C   0  0  0  0  0  0  0  0  0  0  0  0
    2.3442    2.3266    1.3290 C   0  0  0  0  0  0  0  0  0  0  0  0
    2.0157    0.9949    1.1573 C   0  0  0  0  0  0  0  0  0  0  0  0
    1.4756   -0.9654   -0.3025 C   0  0  0  0  0  0  0  0  0  0  0  0
    2.5709   -1.8491    0.2976 C   0  0  0  0  0  0  0  0  0  0  0  0
    3.8664   -1.6649   -0.4953 C   0  0  0  0  0  0  0  0  0  0  0  0
    4.9249   -2.6404    0.0233 C   0  0  0  0  0  0  0  0  0  0  0  0
    0.1473   -1.2510    0.4010 C   0  0  0  0  0  0  0  0  0  0  0  0
   -0.9734   -0.4706   -0.2888 C   0  0  0  0  0  0  0  0  0  0  0  0
   -2.3183   -0.8530    0.3323 C   0  0  0  0  0  0  0  0  0  0  0  0
   -3.4390   -0.0725   -0.3576 C   0  0  0  0  0  0  0  0  0  0  0  0
   -4.7839   -0.4549    0.2635 C   0  0  0  0  0  0  0  0  0  0  0  0
   -5.9046    0.3256   -0.4263 C   0  0  0  0  0  0  0  0  0  0  0  0
   -7.2495   -0.0569    0.1948 C   0  0  0  0  0  0  0  0  0  0  0  0
    1.8612    0.9068   -2.2112 H   0  0  0  0  0  0  0  0  0  0  0  0
    2.4492    3.2783   -1.9054 H   0  0  0  0  0  0  0  0  0  0  0  0
    2.7591    4.1875    0.3619 H   0  0  0  0  0  0  0  0  0  0  0  0
    2.4806    2.7252    2.3234 H   0  0  0  0  0  0  0  0  0  0  0  0
    1.8937    0.3535    2.0176 H   0  0  0  0  0  0  0  0  0  0  0  0
    1.3770   -1.1810   -1.3664 H   0  0  0  0  0  0  0  0  0  0  0  0
    2.7376   -1.5658    1.3369 H   0  0  0  0  0  0  0  0  0  0  0  0
    2.2616   -2.8933    0.2508 H   0  0  0  0  0  0  0  0  0  0  0  0
    3.6774   -1.8611   -1.5507 H   0  0  0  0  0  0  0  0  0  0  0  0
    4.2242   -0.6424   -0.3742 H   0  0  0  0  0  0  0  0  0  0  0  0
    5.1138   -2.4442    1.0787 H   0  0  0  0  0  0  0  0  0  0  0  0
    4.5671   -3.6628   -0.0978 H   0  0  0  0  0  0  0  0  0  0  0  0
    5.8478   -2.5091   -0.5416 H   0  0  0  0  0  0  0  0  0  0  0  0
   -0.0686   -2.3182    0.3502 H   0  0  0  0  0  0  0  0  0  0  0  0
    0.2153   -0.9434    1.4445 H   0  0  0  0  0  0  0  0  0  0  0  0
   -0.8044    0.5985   -0.1597 H   0  0  0  0  0  0  0  0  0  0  0  0
   -0.9826   -0.7111   -1.3519 H   0  0  0  0  0  0  0  0  0  0  0  0
   -2.4873   -1.9220    0.2031 H   0  0  0  0  0  0  0  0  0  0  0  0
   -2.3091   -0.6124    1.3953 H   0  0  0  0  0  0  0  0  0  0  0  0
   -3.2700    0.9965   -0.2284 H   0  0  0  0  0  0  0  0  0  0  0  0
   -3.4482   -0.3131   -1.4207 H   0  0  0  0  0  0  0  0  0  0  0  0
   -4.9529   -1.5240    0.1344 H   0  0  0  0  0  0  0  0  0  0  0  0
   -4.7747   -0.2144    1.3266 H   0  0  0  0  0  0  0  0  0  0  0  0
   -5.7356    1.3946   -0.2972 H   0  0  0  0  0  0  0  0  0  0  0  0
   -5.9138    0.0850   -1.4894 H   0  0  0  0  0  0  0  0  0  0  0  0
   -8.0479    0.4992   -0.2967 H   0  0  0  0  0  0  0  0  0  0  0  0
   -7.4185   -1.1259    0.0656 H   0  0  0  0  0  0  0  0  0  0  0  0
   -7.2404    0.1837    1.2578 H   0  0  0  0  0  0  0  0  0  0  0  0
  1  2  2  0  0  0  0
  2  3  1  0  0  0  0
  3  4  2  0  0  0  0
  4  5  1  0  0  0  0
  5  6  2  0  0  0  0
  1  6  1  0  0  0  0
  1  7  1  0  0  0  0
  7  8  1  0  0  0  0
  8  9  1  0  0  0  0
  9 10  1  0  0  0  0
  7 11  1  0  0  0  0
 11 12  1  0  0  0  0
 12 13  1  0  0  0  0
 13 14  1  0  0  0  0
 14 15  1  0  0  0  0
 15 16  1  0  0  0  0
 16 17  1  0  0  0  0
  2 18  1  0  0  0  0
  3 19  1  0  0  0  0
  4 20  1  0  0  0  0
  5 21  1  0  0  0  0
  6 22  1  0  0  0  0
  7 23  1  0  0  0  0
  8 24  1  0  0  0  0
  8 25  1  0  0  0  0
  9 26  1  0  0  0  0
  9 27  1  0  0  0  0
 10 28  1  0  0  0  0
 10 29  1  0  0  0  0
 10 30  1  0  0  0  0
 11 31  1  0  0  0  0
 11 32  1  0  0  0  0
 12 33  1  0  0  0  0
 12 34  1  0  0  0  0
 13 35  1  0  0  0  0
 13 36  1  0  0  0  0
 14 37  1  0  0  0  0
 14 38  1  0  0  0  0
 15 39  1  0  0  0  0
 15 40  1  0  0  0  0
 16 41  1  0  0  0  0
 16 42  1  0  0  0  0
 17 43  1  0  0  0  0
 17 44  1  0  0  0  0
 17 45  1  0  0  0  0
M  END
$$$$
