C4H9O5P
APtclcactv12211716403D 0   0.00000     0.00000
 
 19 18  0  0  0  0  0  0  0  0999 V2000
    2.0633   -0.0223    0.0383 P   0  0  0  0  0  0  0  0  0  0  0  0
    2.0323   -0.8461    1.2674 O   0  0  0  0  0  0  0  0  0  0  0  0
    3.3371    0.9614    0.0836 O   0  0  0  0  0  0  0  0  0  0  0  0
    2.1726   -0.9830   -1.2490 O   0  0  0  0  0  0  0  0  0  0  0  0
    0.5355    0.9665   -0.0693 C   0  0  0  0  0  0  0  0  0  0  0  0
   -0.6788    0.0395    0.0133 C   0  0  0  0  0  0  0  0  0  0  0  0
   -1.9610    0.8693   -0.0770 C   0  0  0  0  0  0  0  0  0  0  0  0
   -3.1571   -0.0438    0.0043 C   0  0  0  0  0  0  0  0  0  0  0  0
   -3.0001   -1.2360    0.1223 O   0  0  0  0  0  0  0  0  0  0  0  0
   -4.3969    0.4673   -0.0544 O   0  0  0  0  0  0  0  0  0  0  0  0
    4.1864    0.5026    0.1411 H   0  0  0  0  0  0  0  0  0  0  0  0
    2.1977   -0.5097   -2.0920 H   0  0  0  0  0  0  0  0  0  0  0  0
    0.5052    1.6792    0.7549 H   0  0  0  0  0  0  0  0  0  0  0  0
    0.5175    1.5054   -1.0165 H   0  0  0  0  0  0  0  0  0  0  0  0
   -0.6485   -0.6733   -0.8109 H   0  0  0  0  0  0  0  0  0  0  0  0
   -0.6608   -0.4995    0.9605 H   0  0  0  0  0  0  0  0  0  0  0  0
   -1.9913    1.5820    0.7471 H   0  0  0  0  0  0  0  0  0  0  0  0
   -1.9791    1.4082   -1.0243 H   0  0  0  0  0  0  0  0  0  0  0  0
   -5.1326   -0.1578    0.0018 H   0  0  0  0  0  0  0  0  0  0  0  0
  1  2  2  0  0  0  0
  1  3  1  0  0  0  0
  1  4  1  0  0  0  0
  1  5  1  0  0  0  0
  5  6  1  0  0  0  0
  6  7  1  0  0  0  0
  7  8  1  0  0  0  0
  8  9  2  0  0  0  0
  8 10  1  0  0  0  0
  3 11  1  0  0  0  0
  4 12  1  0  0  0  0
  5 13  1  0  0  0  0
  5 14  1  0  0  0  0
  6 15  1  0  0  0  0
  6 16  1  0  0  0  0
  7 17  1  0  0  0  0
  7 18  1  0  0  0  0
 10 19  1  0  0  0  0
M  END
$$$$
