C16H26
APtclcactv12211717353D 0   0.00000     0.00000
 
 42 42  0  0  0  0  0  0  0  0999 V2000
    1.3653   -0.4870    0.1179 C   0  0  0  0  0  0  0  0  0  0  0  0
    1.5021   -1.3083    1.2214 C   0  0  0  0  0  0  0  0  0  0  0  0
    1.8265   -2.6416    1.0546 C   0  0  0  0  0  0  0  0  0  0  0  0
    2.0135   -3.1539   -0.2156 C   0  0  0  0  0  0  0  0  0  0  0  0
    1.8758   -2.3328   -1.3192 C   0  0  0  0  0  0  0  0  0  0  0  0
    1.5528   -0.9991   -1.1523 C   0  0  0  0  0  0  0  0  0  0  0  0
    1.0056    0.9651    0.2994 C   0  0  0  0  0  0  0  0  0  0  0  0
    2.1136    1.8422   -0.2872 C   0  0  0  0  0  0  0  0  0  0  0  0
    3.3978    1.6509    0.5222 C   0  0  0  0  0  0  0  0  0  0  0  0
    4.4684    2.6200    0.0167 C   0  0  0  0  0  0  0  0  0  0  0  0
   -0.3120    1.2581   -0.4212 C   0  0  0  0  0  0  0  0  0  0  0  0
   -1.4458    0.4845    0.2548 C   0  0  0  0  0  0  0  0  0  0  0  0
   -2.7805    0.8743   -0.3836 C   0  0  0  0  0  0  0  0  0  0  0  0
   -3.9144    0.1008    0.2923 C   0  0  0  0  0  0  0  0  0  0  0  0
   -5.2491    0.4906   -0.3461 C   0  0  0  0  0  0  0  0  0  0  0  0
   -6.3829   -0.2830    0.3299 C   0  0  0  0  0  0  0  0  0  0  0  0
    1.3560   -0.9081    2.2138 H   0  0  0  0  0  0  0  0  0  0  0  0
    1.9341   -3.2831    1.9168 H   0  0  0  0  0  0  0  0  0  0  0  0
    2.2676   -4.1954   -0.3459 H   0  0  0  0  0  0  0  0  0  0  0  0
    2.0226   -2.7328   -2.3115 H   0  0  0  0  0  0  0  0  0  0  0  0
    1.4456   -0.3575   -2.0145 H   0  0  0  0  0  0  0  0  0  0  0  0
    0.8947    1.1820    1.3618 H   0  0  0  0  0  0  0  0  0  0  0  0
    2.2919    1.5573   -1.3241 H   0  0  0  0  0  0  0  0  0  0  0  0
    1.8098    2.8881   -0.2449 H   0  0  0  0  0  0  0  0  0  0  0  0
    3.1965    1.8488    1.5750 H   0  0  0  0  0  0  0  0  0  0  0  0
    3.7511    0.6263    0.4063 H   0  0  0  0  0  0  0  0  0  0  0  0
    5.3833    2.4837    0.5934 H   0  0  0  0  0  0  0  0  0  0  0  0
    4.6696    2.4220   -1.0361 H   0  0  0  0  0  0  0  0  0  0  0  0
    4.1150    3.6445    0.1327 H   0  0  0  0  0  0  0  0  0  0  0  0
   -0.5223    2.3265   -0.3737 H   0  0  0  0  0  0  0  0  0  0  0  0
   -0.2325    0.9494   -1.4635 H   0  0  0  0  0  0  0  0  0  0  0  0
   -1.2814   -0.5856    0.1283 H   0  0  0  0  0  0  0  0  0  0  0  0
   -1.4672    0.7258    1.3175 H   0  0  0  0  0  0  0  0  0  0  0  0
   -2.9449    1.9444   -0.2572 H   0  0  0  0  0  0  0  0  0  0  0  0
   -2.7592    0.6331   -1.4464 H   0  0  0  0  0  0  0  0  0  0  0  0
   -3.7499   -0.9693    0.1659 H   0  0  0  0  0  0  0  0  0  0  0  0
   -3.9357    0.3420    1.3551 H   0  0  0  0  0  0  0  0  0  0  0  0
   -5.4135    1.5607   -0.2196 H   0  0  0  0  0  0  0  0  0  0  0  0
   -5.2277    0.2493   -1.4088 H   0  0  0  0  0  0  0  0  0  0  0  0
   -6.2185   -1.3531    0.2035 H   0  0  0  0  0  0  0  0  0  0  0  0
   -6.4043   -0.0417    1.3926 H   0  0  0  0  0  0  0  0  0  0  0  0
   -7.3338   -0.0053   -0.1249 H   0  0  0  0  0  0  0  0  0  0  0  0
  1  2  2  0  0  0  0
  2  3  1  0  0  0  0
  3  4  2  0  0  0  0
  4  5  1  0  0  0  0
  5  6  2  0  0  0  0
  1  6  1  0  0  0  0
  1  7  1  0  0  0  0
  7  8  1  0  0  0  0
  8  9  1  0  0  0  0
  9 10  1  0  0  0  0
  7 11  1  0  0  0  0
 11 12  1  0  0  0  0
 12 13  1  0  0  0  0
 13 14  1  0  0  0  0
 14 15  1  0  0  0  0
 15 16  1  0  0  0  0
  2 17  1  0  0  0  0
  3 18  1  0  0  0  0
  4 19  1  0  0  0  0
  5 20  1  0  0  0  0
  6 21  1  0  0  0  0
  7 22  1  0  0  0  0
  8 23  1  0  0  0  0
  8 24  1  0  0  0  0
  9 25  1  0  0  0  0
  9 26  1  0  0  0  0
 10 27  1  0  0  0  0
 10 28  1  0  0  0  0
 10 29  1  0  0  0  0
 11 30  1  0  0  0  0
 11 31  1  0  0  0  0
 12 32  1  0  0  0  0
 12 33  1  0  0  0  0
 13 34  1  0  0  0  0
 13 35  1  0  0  0  0
 14 36  1  0  0  0  0
 14 37  1  0  0  0  0
 15 38  1  0  0  0  0
 15 39  1  0  0  0  0
 16 40  1  0  0  0  0
 16 41  1  0  0  0  0
 16 42  1  0  0  0  0
M  END
$$$$
