C16H26N2O2
APtclcactv12211717353D 0   0.00000     0.00000
 
 46 46  0  0  0  0  0  0  0  0999 V2000
    4.4431   -2.2024    0.5840 C   0  0  0  0  0  0  0  0  0  0  0  0
    4.1755   -3.3294   -0.4156 C   0  0  0  0  0  0  0  0  0  0  0  0
    3.9208   -0.9383    0.0481 N   0  0  0  0  0  0  0  0  0  0  0  0
    3.9440    0.1164    1.0704 C   0  0  0  0  0  0  0  0  0  0  0  0
    3.0548    1.2788    0.6242 C   0  0  0  0  0  0  0  0  0  0  0  0
    1.6771    0.8285    0.5371 O   0  0  0  0  0  0  0  0  0  0  0  0
    0.7592    1.7380    0.1545 C   0  0  0  0  0  0  0  0  0  0  0  0
   -0.6589    1.3522    0.0440 C   0  0  0  0  0  0  0  0  0  0  0  0
   -1.6128    2.2948   -0.3529 C   0  0  0  0  0  0  0  0  0  0  0  0
   -2.9312    1.9326   -0.4547 C   0  0  0  0  0  0  0  0  0  0  0  0
   -3.3210    0.6281   -0.1629 C   0  0  0  0  0  0  0  0  0  0  0  0
   -2.3739   -0.3128    0.2326 C   0  0  0  0  0  0  0  0  0  0  0  0
   -1.0529    0.0411    0.3303 C   0  0  0  0  0  0  0  0  0  0  0  0
   -4.6587    0.2644   -0.2662 N   0  0  0  0  0  0  0  0  0  0  0  0
   -5.0706   -1.1076    0.0405 C   0  0  0  0  0  0  0  0  0  0  0  0
   -6.5827   -1.2410   -0.1509 C   0  0  0  0  0  0  0  0  0  0  0  0
   -7.0128   -2.6740    0.1694 C   0  0  0  0  0  0  0  0  0  0  0  0
    1.1008    2.8762   -0.0994 O   0  0  0  0  0  0  0  0  0  0  0  0
    4.6649   -0.5269   -1.1498 C   0  0  0  0  0  0  0  0  0  0  0  0
    6.1327   -0.2968   -0.7844 C   0  0  0  0  0  0  0  0  0  0  0  0
    3.9478   -2.4290    1.5282 H   0  0  0  0  0  0  0  0  0  0  0  0
    5.5165   -2.1109    0.7496 H   0  0  0  0  0  0  0  0  0  0  0  0
    3.1020   -3.4209   -0.5812 H   0  0  0  0  0  0  0  0  0  0  0  0
    4.6707   -3.1028   -1.3598 H   0  0  0  0  0  0  0  0  0  0  0  0
    4.5630   -4.2674   -0.0180 H   0  0  0  0  0  0  0  0  0  0  0  0
    3.5727   -0.2837    2.0138 H   0  0  0  0  0  0  0  0  0  0  0  0
    4.9661    0.4711    1.2033 H   0  0  0  0  0  0  0  0  0  0  0  0
    3.1268    2.0901    1.3485 H   0  0  0  0  0  0  0  0  0  0  0  0
    3.3835    1.6336   -0.3526 H   0  0  0  0  0  0  0  0  0  0  0  0
   -1.3112    3.3069   -0.5787 H   0  0  0  0  0  0  0  0  0  0  0  0
   -3.6683    2.6600   -0.7612 H   0  0  0  0  0  0  0  0  0  0  0  0
   -2.6796   -1.3237    0.4586 H   0  0  0  0  0  0  0  0  0  0  0  0
   -0.3187   -0.6892    0.6368 H   0  0  0  0  0  0  0  0  0  0  0  0
   -5.3194    0.9191   -0.5413 H   0  0  0  0  0  0  0  0  0  0  0  0
   -4.5574   -1.7990   -0.6279 H   0  0  0  0  0  0  0  0  0  0  0  0
   -4.8130   -1.3421    1.0733 H   0  0  0  0  0  0  0  0  0  0  0  0
   -7.0959   -0.5497    0.5175 H   0  0  0  0  0  0  0  0  0  0  0  0
   -6.8403   -1.0066   -1.1837 H   0  0  0  0  0  0  0  0  0  0  0  0
   -8.0901   -2.7690    0.0331 H   0  0  0  0  0  0  0  0  0  0  0  0
   -6.4997   -3.3653   -0.4990 H   0  0  0  0  0  0  0  0  0  0  0  0
   -6.7552   -2.9084    1.2022 H   0  0  0  0  0  0  0  0  0  0  0  0
    4.5970   -1.3089   -1.9061 H   0  0  0  0  0  0  0  0  0  0  0  0
    4.2392    0.3964   -1.5426 H   0  0  0  0  0  0  0  0  0  0  0  0
    6.2018    0.4966   -0.0402 H   0  0  0  0  0  0  0  0  0  0  0  0
    6.5538   -1.2156   -0.3762 H   0  0  0  0  0  0  0  0  0  0  0  0
    6.6881   -0.0076   -1.6766 H   0  0  0  0  0  0  0  0  0  0  0  0
  1  2  1  0  0  0  0
  1  3  1  0  0  0  0
  3  4  1  0  0  0  0
  4  5  1  0  0  0  0
  5  6  1  0  0  0  0
  6  7  1  0  0  0  0
  7  8  1  0  0  0  0
  8  9  2  0  0  0  0
  9 10  1  0  0  0  0
 10 11  2  0  0  0  0
 11 12  1  0  0  0  0
 12 13  2  0  0  0  0
  8 13  1  0  0  0  0
 11 14  1  0  0  0  0
 14 15  1  0  0  0  0
 15 16  1  0  0  0  0
 16 17  1  0  0  0  0
  7 18  2  0  0  0  0
  3 19  1  0  0  0  0
 19 20  1  0  0  0  0
  1 21  1  0  0  0  0
  1 22  1  0  0  0  0
  2 23  1  0  0  0  0
  2 24  1  0  0  0  0
  2 25  1  0  0  0  0
  4 26  1  0  0  0  0
  4 27  1  0  0  0  0
  5 28  1  0  0  0  0
  5 29  1  0  0  0  0
  9 30  1  0  0  0  0
 10 31  1  0  0  0  0
 12 32  1  0  0  0  0
 13 33  1  0  0  0  0
 14 34  1  0  0  0  0
 15 35  1  0  0  0  0
 15 36  1  0  0  0  0
 16 37  1  0  0  0  0
 16 38  1  0  0  0  0
 17 39  1  0  0  0  0
 17 40  1  0  0  0  0
 17 41  1  0  0  0  0
 19 42  1  0  0  0  0
 19 43  1  0  0  0  0
 20 44  1  0  0  0  0
 20 45  1  0  0  0  0
 20 46  1  0  0  0  0
M  END
$$$$
