C11H12N4O2S
APtclcactv12211717333D 0   0.00000     0.00000
 
 30 31  0  0  0  0  0  0  0  0999 V2000
    0.1638   -1.8530   -0.4325 S   0  0  0  0  0  0  0  0  0  0  0  0
    0.7822   -3.0803   -0.0714 O   0  0  0  0  0  0  0  0  0  0  0  0
    1.3555   -0.5893   -0.1363 C   0  0  0  0  0  0  0  0  0  0  0  0
    2.3759   -0.8026    0.7722 C   0  0  0  0  0  0  0  0  0  0  0  0
    3.3116    0.1857    1.0067 C   0  0  0  0  0  0  0  0  0  0  0  0
    3.2268    1.3951    0.3287 C   0  0  0  0  0  0  0  0  0  0  0  0
    2.2005    1.6061   -0.5833 C   0  0  0  0  0  0  0  0  0  0  0  0
    1.2714    0.6114   -0.8171 C   0  0  0  0  0  0  0  0  0  0  0  0
    4.1712    2.3970    0.5638 N   0  0  0  0  0  0  0  0  0  0  0  0
   -0.3729   -1.6036   -1.7244 O   0  0  0  0  0  0  0  0  0  0  0  0
   -1.0751   -1.6199    0.6415 N   0  0  0  0  0  0  0  0  0  0  0  0
   -1.8543   -0.4772    0.5627 C   0  0  0  0  0  0  0  0  0  0  0  0
   -1.6169    0.4393   -0.3710 N   0  0  0  0  0  0  0  0  0  0  0  0
   -2.3565    1.5272   -0.4489 C   0  0  0  0  0  0  0  0  0  0  0  0
   -3.3518    1.7521    0.3846 N   0  0  0  0  0  0  0  0  0  0  0  0
   -3.6500    0.8850    1.3422 C   0  0  0  0  0  0  0  0  0  0  0  0
   -2.9056   -0.2720    1.4590 C   0  0  0  0  0  0  0  0  0  0  0  0
   -2.0552    2.5425   -1.5210 C   0  0  0  0  0  0  0  0  0  0  0  0
    2.4410   -1.7430    1.2993 H   0  0  0  0  0  0  0  0  0  0  0  0
    4.1081    0.0186    1.7167 H   0  0  0  0  0  0  0  0  0  0  0  0
    2.1317    2.5453   -1.1121 H   0  0  0  0  0  0  0  0  0  0  0  0
    0.4734    0.7746   -1.5263 H   0  0  0  0  0  0  0  0  0  0  0  0
    4.8873    2.2487    1.2011 H   0  0  0  0  0  0  0  0  0  0  0  0
    4.1110    3.2411    0.0898 H   0  0  0  0  0  0  0  0  0  0  0  0
   -1.2551   -2.2835    1.3257 H   0  0  0  0  0  0  0  0  0  0  0  0
   -4.4680    1.0793    2.0201 H   0  0  0  0  0  0  0  0  0  0  0  0
   -3.1258   -0.9966    2.2291 H   0  0  0  0  0  0  0  0  0  0  0  0
   -2.6263    2.3039   -2.4182 H   0  0  0  0  0  0  0  0  0  0  0  0
   -2.3312    3.5362   -1.1682 H   0  0  0  0  0  0  0  0  0  0  0  0
   -0.9902    2.5218   -1.7520 H   0  0  0  0  0  0  0  0  0  0  0  0
  1  2  2  0  0  0  0
  1  3  1  0  0  0  0
  3  4  2  0  0  0  0
  4  5  1  0  0  0  0
  5  6  2  0  0  0  0
  6  7  1  0  0  0  0
  7  8  2  0  0  0  0
  3  8  1  0  0  0  0
  6  9  1  0  0  0  0
  1 10  2  0  0  0  0
  1 11  1  0  0  0  0
 11 12  1  0  0  0  0
 12 13  2  0  0  0  0
 13 14  1  0  0  0  0
 14 15  2  0  0  0  0
 15 16  1  0  0  0  0
 16 17  2  0  0  0  0
 12 17  1  0  0  0  0
 14 18  1  0  0  0  0
  4 19  1  0  0  0  0
  5 20  1  0  0  0  0
  7 21  1  0  0  0  0
  8 22  1  0  0  0  0
  9 23  1  0  0  0  0
  9 24  1  0  0  0  0
 11 25  1  0  0  0  0
 16 26  1  0  0  0  0
 17 27  1  0  0  0  0
 18 28  1  0  0  0  0
 18 29  1  0  0  0  0
 18 30  1  0  0  0  0
M  END
$$$$
