C10H10N4O2S
APtclcactv12211717223D 0   0.00000     0.00000
 
 27 28  0  0  0  0  0  0  0  0999 V2000
   -0.1564   -1.7433   -0.2858 S   0  0  0  0  0  0  0  0  0  0  0  0
    0.2909   -2.9730    0.2683 O   0  0  0  0  0  0  0  0  0  0  0  0
    1.1748   -0.6030   -0.1059 C   0  0  0  0  0  0  0  0  0  0  0  0
    2.1309   -0.8075    0.8720 C   0  0  0  0  0  0  0  0  0  0  0  0
    3.1756    0.0843    1.0157 C   0  0  0  0  0  0  0  0  0  0  0  0
    3.2653    1.1876    0.1765 C   0  0  0  0  0  0  0  0  0  0  0  0
    2.3031    1.3900   -0.8047 C   0  0  0  0  0  0  0  0  0  0  0  0
    1.2641    0.4913   -0.9466 C   0  0  0  0  0  0  0  0  0  0  0  0
    4.3203    2.0918    0.3194 N   0  0  0  0  0  0  0  0  0  0  0  0
   -0.6162   -1.6155   -1.6243 O   0  0  0  0  0  0  0  0  0  0  0  0
   -1.3895   -1.2142    0.6847 N   0  0  0  0  0  0  0  0  0  0  0  0
   -2.0153   -0.0098    0.4139 C   0  0  0  0  0  0  0  0  0  0  0  0
   -3.1744    0.2619    0.9953 N   0  0  0  0  0  0  0  0  0  0  0  0
   -3.7986    1.4038    0.7581 C   0  0  0  0  0  0  0  0  0  0  0  0
   -3.2257    2.3199   -0.1100 C   0  0  0  0  0  0  0  0  0  0  0  0
   -2.0125    2.0036   -0.7011 C   0  0  0  0  0  0  0  0  0  0  0  0
   -1.4384    0.8464   -0.4166 N   0  0  0  0  0  0  0  0  0  0  0  0
    2.0604   -1.6653    1.5243 H   0  0  0  0  0  0  0  0  0  0  0  0
    3.9218   -0.0758    1.7799 H   0  0  0  0  0  0  0  0  0  0  0  0
    2.3699    2.2468   -1.4588 H   0  0  0  0  0  0  0  0  0  0  0  0
    0.5159    0.6478   -1.7096 H   0  0  0  0  0  0  0  0  0  0  0  0
    4.9914    1.9496    1.0052 H   0  0  0  0  0  0  0  0  0  0  0  0
    4.3818    2.8619   -0.2672 H   0  0  0  0  0  0  0  0  0  0  0  0
   -1.6733   -1.7484    1.4430 H   0  0  0  0  0  0  0  0  0  0  0  0
   -4.7434    1.6195    1.2348 H   0  0  0  0  0  0  0  0  0  0  0  0
   -3.7142    3.2596   -0.3217 H   0  0  0  0  0  0  0  0  0  0  0  0
   -1.5397    2.6954   -1.3825 H   0  0  0  0  0  0  0  0  0  0  0  0
  1  2  2  0  0  0  0
  1  3  1  0  0  0  0
  3  4  2  0  0  0  0
  4  5  1  0  0  0  0
  5  6  2  0  0  0  0
  6  7  1  0  0  0  0
  7  8  2  0  0  0  0
  3  8  1  0  0  0  0
  6  9  1  0  0  0  0
  1 10  2  0  0  0  0
  1 11  1  0  0  0  0
 11 12  1  0  0  0  0
 12 13  2  0  0  0  0
 13 14  1  0  0  0  0
 14 15  2  0  0  0  0
 15 16  1  0  0  0  0
 16 17  2  0  0  0  0
 12 17  1  0  0  0  0
  4 18  1  0  0  0  0
  5 19  1  0  0  0  0
  7 20  1  0  0  0  0
  8 21  1  0  0  0  0
  9 22  1  0  0  0  0
  9 23  1  0  0  0  0
 11 24  1  0  0  0  0
 14 25  1  0  0  0  0
 15 26  1  0  0  0  0
 16 27  1  0  0  0  0
M  END
$$$$
