C10H10BrNO3S
APtclcactv12211717213D 0   0.00000     0.00000
 
 26 27  0  0  0  0  0  0  0  0999 V2000
    3.0999   -1.6265   -0.1646 Br  0  0  0  0  0  0  0  0  0  0  0  0
    2.2111    0.0208    0.1036 C   0  0  0  0  0  0  0  0  0  0  0  0
    2.9437    1.1713    0.3363 C   0  0  0  0  0  0  0  0  0  0  0  0
    2.2964    2.3756    0.5325 C   0  0  0  0  0  0  0  0  0  0  0  0
    0.9105    2.4311    0.4960 C   0  0  0  0  0  0  0  0  0  0  0  0
    0.1780    1.2767    0.2625 C   0  0  0  0  0  0  0  0  0  0  0  0
    0.8296    0.0751    0.0611 C   0  0  0  0  0  0  0  0  0  0  0  0
   -1.3274    1.3341    0.2223 C   0  0  0  0  0  0  0  0  0  0  0  0
   -1.9177    1.3842   -1.5150 S   0  0  0  0  0  0  0  0  0  0  0  0
   -3.2950    0.1900   -1.2484 C   0  0  0  0  0  0  0  0  0  0  0  0
   -2.6486   -0.7244   -0.1712 C   0  0  0  0  0  0  0  0  0  0  0  0
   -1.9027    0.0984    0.7850 N   0  0  0  0  0  0  0  0  0  0  0  0
   -3.7277   -1.4853    0.5552 C   0  0  0  0  0  0  0  0  0  0  0  0
   -4.1066   -1.1095    1.6393 O   0  0  0  0  0  0  0  0  0  0  0  0
   -4.2679   -2.5804   -0.0020 O   0  0  0  0  0  0  0  0  0  0  0  0
    0.2716    3.6151    0.6892 O   0  0  0  0  0  0  0  0  0  0  0  0
    4.0224    1.1275    0.3650 H   0  0  0  0  0  0  0  0  0  0  0  0
    2.8686    3.2733    0.7145 H   0  0  0  0  0  0  0  0  0  0  0  0
    0.2595   -0.8240   -0.1207 H   0  0  0  0  0  0  0  0  0  0  0  0
   -1.6874    2.2051    0.7700 H   0  0  0  0  0  0  0  0  0  0  0  0
   -4.1839    0.6894   -0.8630 H   0  0  0  0  0  0  0  0  0  0  0  0
   -3.5190   -0.3666   -2.1585 H   0  0  0  0  0  0  0  0  0  0  0  0
   -1.9695   -1.4285   -0.6521 H   0  0  0  0  0  0  0  0  0  0  0  0
   -1.1970   -0.4464    1.2575 H   0  0  0  0  0  0  0  0  0  0  0  0
   -4.9568   -3.0351    0.5019 H   0  0  0  0  0  0  0  0  0  0  0  0
    0.1159    4.1153   -0.1237 H   0  0  0  0  0  0  0  0  0  0  0  0
  1  2  1  0  0  0  0
  2  3  1  0  0  0  0
  3  4  2  0  0  0  0
  4  5  1  0  0  0  0
  5  6  2  0  0  0  0
  6  7  1  0  0  0  0
  2  7  2  0  0  0  0
  6  8  1  0  0  0  0
  8  9  1  0  0  0  0
  9 10  1  0  0  0  0
 10 11  1  0  0  0  0
 11 12  1  0  0  0  0
  8 12  1  0  0  0  0
 11 13  1  0  0  0  0
 13 14  2  0  0  0  0
 13 15  1  0  0  0  0
  5 16  1  0  0  0  0
  3 17  1  0  0  0  0
  4 18  1  0  0  0  0
  7 19  1  0  0  0  0
  8 20  1  0  0  0  0
 10 21  1  0  0  0  0
 10 22  1  0  0  0  0
 11 23  1  0  0  0  0
 12 24  1  0  0  0  0
 15 25  1  0  0  0  0
 16 26  1  0  0  0  0
M  END
$$$$
