C8H15NO2S
APtclcactv12151716343D 0   0.00000     0.00000
 
 27 27  0  0  0  0  0  0  0  0999 V2000
    4.1975   -0.4758   -1.1404 C   0  0  0  0  0  0  0  0  0  0  0  0
    3.1165   -0.0602   -0.1406 C   0  0  0  0  0  0  0  0  0  0  0  0
    1.8047   -0.7689   -0.4838 C   0  0  0  0  0  0  0  0  0  0  0  0
    0.6905   -0.2486    0.4265 C   0  0  0  0  0  0  0  0  0  0  0  0
    0.4213    1.5449    0.1441 S   0  0  0  0  0  0  0  0  0  0  0  0
   -1.4175    1.4363    0.1795 C   0  0  0  0  0  0  0  0  0  0  0  0
   -1.6121    0.0269   -0.4452 C   0  0  0  0  0  0  0  0  0  0  0  0
   -0.5935   -0.8860    0.0807 N   0  0  0  0  0  0  0  0  0  0  0  0
   -2.9823   -0.4933   -0.0946 C   0  0  0  0  0  0  0  0  0  0  0  0
   -3.0962   -1.5066    0.5535 O   0  0  0  0  0  0  0  0  0  0  0  0
   -4.0763    0.1692   -0.5022 O   0  0  0  0  0  0  0  0  0  0  0  0
    3.5522   -0.4503    1.2732 C   0  0  0  0  0  0  0  0  0  0  0  0
    5.1469   -0.0201   -0.8593 H   0  0  0  0  0  0  0  0  0  0  0  0
    4.2995   -1.5610   -1.1350 H   0  0  0  0  0  0  0  0  0  0  0  0
    3.9161   -0.1423   -2.1393 H   0  0  0  0  0  0  0  0  0  0  0  0
    2.9704    1.0188   -0.1910 H   0  0  0  0  0  0  0  0  0  0  0  0
    1.5461   -0.5710   -1.5241 H   0  0  0  0  0  0  0  0  0  0  0  0
    1.9225   -1.8425   -0.3367 H   0  0  0  0  0  0  0  0  0  0  0  0
    0.9383   -0.4345    1.4716 H   0  0  0  0  0  0  0  0  0  0  0  0
   -1.7973    1.4733    1.2005 H   0  0  0  0  0  0  0  0  0  0  0  0
   -1.8725    2.2103   -0.4386 H   0  0  0  0  0  0  0  0  0  0  0  0
   -1.5158    0.0934   -1.5289 H   0  0  0  0  0  0  0  0  0  0  0  0
   -0.4531   -1.6681   -0.5412 H   0  0  0  0  0  0  0  0  0  0  0  0
   -4.9333   -0.2031   -0.2529 H   0  0  0  0  0  0  0  0  0  0  0  0
    4.4867    0.0546    1.5177 H   0  0  0  0  0  0  0  0  0  0  0  0
    2.7821   -0.1543    1.9854 H   0  0  0  0  0  0  0  0  0  0  0  0
    3.6982   -1.5293    1.3236 H   0  0  0  0  0  0  0  0  0  0  0  0
  1  2  1  0  0  0  0
  2  3  1  0  0  0  0
  3  4  1  0  0  0  0
  4  5  1  0  0  0  0
  5  6  1  0  0  0  0
  6  7  1  0  0  0  0
  7  8  1  0  0  0  0
  4  8  1  0  0  0  0
  7  9  1  0  0  0  0
  9 10  2  0  0  0  0
  9 11  1  0  0  0  0
  2 12  1  0  0  0  0
  1 13  1  0  0  0  0
  1 14  1  0  0  0  0
  1 15  1  0  0  0  0
  2 16  1  0  0  0  0
  3 17  1  0  0  0  0
  3 18  1  0  0  0  0
  4 19  1  0  0  0  0
  6 20  1  0  0  0  0
  6 21  1  0  0  0  0
  7 22  1  0  0  0  0
  8 23  1  0  0  0  0
 11 24  1  0  0  0  0
 12 25  1  0  0  0  0
 12 26  1  0  0  0  0
 12 27  1  0  0  0  0
M  END
$$$$
