C11H13NO3S
APtclcactv12211717333D 0   0.00000     0.00000
 
 29 30  0  0  0  0  0  0  0  0999 V2000
   -5.0412    1.7832   -0.7107 C   0  0  0  0  0  0  0  0  0  0  0  0
   -4.8036    0.5237   -0.0786 O   0  0  0  0  0  0  0  0  0  0  0  0
   -3.5070    0.1583    0.1006 C   0  0  0  0  0  0  0  0  0  0  0  0
   -3.2036   -1.0517    0.7076 C   0  0  0  0  0  0  0  0  0  0  0  0
   -1.8848   -1.4209    0.8886 C   0  0  0  0  0  0  0  0  0  0  0  0
   -0.8675   -0.5855    0.4655 C   0  0  0  0  0  0  0  0  0  0  0  0
   -1.1672    0.6212   -0.1393 C   0  0  0  0  0  0  0  0  0  0  0  0
   -2.4844    0.9921   -0.3282 C   0  0  0  0  0  0  0  0  0  0  0  0
    0.5703   -0.9907    0.6643 C   0  0  0  0  0  0  0  0  0  0  0  0
    1.1869   -1.8975   -0.8076 S   0  0  0  0  0  0  0  0  0  0  0  0
    2.8194   -1.0446   -0.8463 C   0  0  0  0  0  0  0  0  0  0  0  0
    2.3989    0.3572   -0.3243 C   0  0  0  0  0  0  0  0  0  0  0  0
    1.4301    0.2031    0.7645 N   0  0  0  0  0  0  0  0  0  0  0  0
    3.6140    1.0893    0.1842 C   0  0  0  0  0  0  0  0  0  0  0  0
    3.8428    1.1295    1.3699 O   0  0  0  0  0  0  0  0  0  0  0  0
    4.4421    1.6967   -0.6801 O   0  0  0  0  0  0  0  0  0  0  0  0
   -4.5977    1.7795   -1.7063 H   0  0  0  0  0  0  0  0  0  0  0  0
   -6.1150    1.9520   -0.7919 H   0  0  0  0  0  0  0  0  0  0  0  0
   -4.5923    2.5786   -0.1159 H   0  0  0  0  0  0  0  0  0  0  0  0
   -3.9979   -1.7044    1.0386 H   0  0  0  0  0  0  0  0  0  0  0  0
   -1.6482   -2.3626    1.3614 H   0  0  0  0  0  0  0  0  0  0  0  0
   -0.3708    1.2723   -0.4683 H   0  0  0  0  0  0  0  0  0  0  0  0
   -2.7180    1.9348   -0.8007 H   0  0  0  0  0  0  0  0  0  0  0  0
    0.6695   -1.6070    1.5579 H   0  0  0  0  0  0  0  0  0  0  0  0
    3.5319   -1.5212   -0.1730 H   0  0  0  0  0  0  0  0  0  0  0  0
    3.2134   -0.9881   -1.8611 H   0  0  0  0  0  0  0  0  0  0  0  0
    1.9459    0.9264   -1.1360 H   0  0  0  0  0  0  0  0  0  0  0  0
    0.8764    1.0391    0.8768 H   0  0  0  0  0  0  0  0  0  0  0  0
    5.2083    2.1536   -0.3068 H   0  0  0  0  0  0  0  0  0  0  0  0
  1  2  1  0  0  0  0
  2  3  1  0  0  0  0
  3  4  2  0  0  0  0
  4  5  1  0  0  0  0
  5  6  2  0  0  0  0
  6  7  1  0  0  0  0
  7  8  2  0  0  0  0
  3  8  1  0  0  0  0
  6  9  1  0  0  0  0
  9 10  1  0  0  0  0
 10 11  1  0  0  0  0
 11 12  1  0  0  0  0
 12 13  1  0  0  0  0
  9 13  1  0  0  0  0
 12 14  1  0  0  0  0
 14 15  2  0  0  0  0
 14 16  1  0  0  0  0
  1 17  1  0  0  0  0
  1 18  1  0  0  0  0
  1 19  1  0  0  0  0
  4 20  1  0  0  0  0
  5 21  1  0  0  0  0
  7 22  1  0  0  0  0
  8 23  1  0  0  0  0
  9 24  1  0  0  0  0
 11 25  1  0  0  0  0
 11 26  1  0  0  0  0
 12 27  1  0  0  0  0
 13 28  1  0  0  0  0
 16 29  1  0  0  0  0
M  END
$$$$
