C10H10ClNO2S
APtclcactv12211717213D 0   0.00000     0.00000
 
 25 26  0  0  0  0  0  0  0  0999 V2000
   -2.7268   -1.7911    0.7219 Cl  0  0  0  0  0  0  0  0  0  0  0  0
   -2.4953   -0.1271    0.2848 C   0  0  0  0  0  0  0  0  0  0  0  0
   -1.2206    0.3550    0.0473 C   0  0  0  0  0  0  0  0  0  0  0  0
   -1.0369    1.6802   -0.3008 C   0  0  0  0  0  0  0  0  0  0  0  0
   -2.1265    2.5234   -0.4115 C   0  0  0  0  0  0  0  0  0  0  0  0
   -3.4007    2.0422   -0.1737 C   0  0  0  0  0  0  0  0  0  0  0  0
   -3.5862    0.7161    0.1682 C   0  0  0  0  0  0  0  0  0  0  0  0
   -0.0325   -0.5641    0.1684 C   0  0  0  0  0  0  0  0  0  0  0  0
    0.4962   -1.1452   -1.4905 S   0  0  0  0  0  0  0  0  0  0  0  0
    2.2977   -0.9427   -1.1621 C   0  0  0  0  0  0  0  0  0  0  0  0
    2.2587    0.2938   -0.2220 C   0  0  0  0  0  0  0  0  0  0  0  0
    1.1298    0.1686    0.7041 N   0  0  0  0  0  0  0  0  0  0  0  0
    3.5443    0.3707    0.5606 C   0  0  0  0  0  0  0  0  0  0  0  0
    3.5821   -0.0268    1.7010 O   0  0  0  0  0  0  0  0  0  0  0  0
    4.6474    0.8808   -0.0092 O   0  0  0  0  0  0  0  0  0  0  0  0
   -0.0418    2.0568   -0.4859 H   0  0  0  0  0  0  0  0  0  0  0  0
   -1.9825    3.5586   -0.6834 H   0  0  0  0  0  0  0  0  0  0  0  0
   -4.2516    2.7017   -0.2597 H   0  0  0  0  0  0  0  0  0  0  0  0
   -4.5815    0.3404    0.3539 H   0  0  0  0  0  0  0  0  0  0  0  0
   -0.2747   -1.4130    0.8078 H   0  0  0  0  0  0  0  0  0  0  0  0
    2.7086   -1.8148   -0.6535 H   0  0  0  0  0  0  0  0  0  0  0  0
    2.8460   -0.7265   -2.0790 H   0  0  0  0  0  0  0  0  0  0  0  0
    2.1418    1.1994   -0.8172 H   0  0  0  0  0  0  0  0  0  0  0  0
    0.8546    1.0707    1.0628 H   0  0  0  0  0  0  0  0  0  0  0  0
    5.4481    0.9094    0.5322 H   0  0  0  0  0  0  0  0  0  0  0  0
  1  2  1  0  0  0  0
  2  3  2  0  0  0  0
  3  4  1  0  0  0  0
  4  5  2  0  0  0  0
  5  6  1  0  0  0  0
  6  7  2  0  0  0  0
  2  7  1  0  0  0  0
  3  8  1  0  0  0  0
  8  9  1  0  0  0  0
  9 10  1  0  0  0  0
 10 11  1  0  0  0  0
 11 12  1  0  0  0  0
  8 12  1  0  0  0  0
 11 13  1  0  0  0  0
 13 14  2  0  0  0  0
 13 15  1  0  0  0  0
  4 16  1  0  0  0  0
  5 17  1  0  0  0  0
  6 18  1  0  0  0  0
  7 19  1  0  0  0  0
  8 20  1  0  0  0  0
 10 21  1  0  0  0  0
 10 22  1  0  0  0  0
 11 23  1  0  0  0  0
 12 24  1  0  0  0  0
 15 25  1  0  0  0  0
M  END
$$$$
