C8H9NO2S2
APtclcactv12151716313D 0   0.00000     0.00000
 
 22 23  0  0  0  0  0  0  0  0999 V2000
    1.9241    1.2310    0.6359 S   0  0  0  0  0  0  0  0  0  0  0  0
    1.6658   -0.1547   -0.4161 C   0  0  0  0  0  0  0  0  0  0  0  0
    2.8422   -0.6228   -0.8361 C   0  0  0  0  0  0  0  0  0  0  0  0
    3.9462    0.0655   -0.3635 C   0  0  0  0  0  0  0  0  0  0  0  0
    3.6665    1.0926    0.4403 C   0  0  0  0  0  0  0  0  0  0  0  0
    0.3213   -0.7263   -0.7857 C   0  0  0  0  0  0  0  0  0  0  0  0
   -0.1970   -1.9852    0.4455 S   0  0  0  0  0  0  0  0  0  0  0  0
   -1.9463   -1.4132    0.5295 C   0  0  0  0  0  0  0  0  0  0  0  0
   -1.7382    0.1106    0.3081 C   0  0  0  0  0  0  0  0  0  0  0  0
   -0.7158    0.3200   -0.7208 N   0  0  0  0  0  0  0  0  0  0  0  0
   -3.0351    0.7352   -0.1379 C   0  0  0  0  0  0  0  0  0  0  0  0
   -3.2213    0.9706   -1.3082 O   0  0  0  0  0  0  0  0  0  0  0  0
   -3.9834    1.0301    0.7652 O   0  0  0  0  0  0  0  0  0  0  0  0
    2.9268   -1.4745   -1.4948 H   0  0  0  0  0  0  0  0  0  0  0  0
    4.9575   -0.2084   -0.6255 H   0  0  0  0  0  0  0  0  0  0  0  0
    4.3980    1.7403    0.9004 H   0  0  0  0  0  0  0  0  0  0  0  0
    0.3579   -1.1644   -1.7831 H   0  0  0  0  0  0  0  0  0  0  0  0
   -2.5456   -1.8517   -0.2684 H   0  0  0  0  0  0  0  0  0  0  0  0
   -2.3831   -1.6158    1.5074 H   0  0  0  0  0  0  0  0  0  0  0  0
   -1.4150    0.5726    1.2409 H   0  0  0  0  0  0  0  0  0  0  0  0
   -0.3007    1.2359   -0.6369 H   0  0  0  0  0  0  0  0  0  0  0  0
   -4.7983    1.4296    0.4315 H   0  0  0  0  0  0  0  0  0  0  0  0
  1  2  1  0  0  0  0
  2  3  2  0  0  0  0
  3  4  1  0  0  0  0
  4  5  2  0  0  0  0
  1  5  1  0  0  0  0
  2  6  1  0  0  0  0
  6  7  1  0  0  0  0
  7  8  1  0  0  0  0
  8  9  1  0  0  0  0
  9 10  1  0  0  0  0
  6 10  1  0  0  0  0
  9 11  1  0  0  0  0
 11 12  2  0  0  0  0
 11 13  1  0  0  0  0
  3 14  1  0  0  0  0
  4 15  1  0  0  0  0
  5 16  1  0  0  0  0
  6 17  1  0  0  0  0
  8 18  1  0  0  0  0
  8 19  1  0  0  0  0
  9 20  1  0  0  0  0
 10 21  1  0  0  0  0
 13 22  1  0  0  0  0
M  END
$$$$
