C12H13NO2S
APtclcactv12111704583D 0   0.00000     0.00000
 
 29 30  0  0  0  0  0  0  0  0999 V2000
   -4.9762   -0.6257    0.1231 C   0  0  0  0  0  0  0  0  0  0  0  0
   -5.2511   -1.7798    0.7144 C   0  0  0  0  0  0  0  0  0  0  0  0
   -3.5706   -0.2157   -0.0801 C   0  0  0  0  0  0  0  0  0  0  0  0
   -3.2779    0.9985   -0.7022 C   0  0  0  0  0  0  0  0  0  0  0  0
   -1.9638    1.3754   -0.8889 C   0  0  0  0  0  0  0  0  0  0  0  0
   -0.9375    0.5523   -0.4607 C   0  0  0  0  0  0  0  0  0  0  0  0
   -1.2211   -0.6530    0.1564 C   0  0  0  0  0  0  0  0  0  0  0  0
   -2.5310   -1.0385    0.3546 C   0  0  0  0  0  0  0  0  0  0  0  0
    0.4955    0.9703   -0.6678 C   0  0  0  0  0  0  0  0  0  0  0  0
    1.1075    1.8964    0.7939 S   0  0  0  0  0  0  0  0  0  0  0  0
    2.7488    1.0605    0.8349 C   0  0  0  0  0  0  0  0  0  0  0  0
    2.3408   -0.3501    0.3268 C   0  0  0  0  0  0  0  0  0  0  0  0
    1.3670   -0.2157   -0.7601 N   0  0  0  0  0  0  0  0  0  0  0  0
    3.5617   -1.0744   -0.1792 C   0  0  0  0  0  0  0  0  0  0  0  0
    3.7871   -1.1230   -1.3652 O   0  0  0  0  0  0  0  0  0  0  0  0
    4.3987   -1.6656    0.6878 O   0  0  0  0  0  0  0  0  0  0  0  0
   -5.7791    0.0130   -0.2143 H   0  0  0  0  0  0  0  0  0  0  0  0
   -4.4482   -2.4205    1.0478 H   0  0  0  0  0  0  0  0  0  0  0  0
   -6.2781   -2.0793    0.8629 H   0  0  0  0  0  0  0  0  0  0  0  0
   -4.0781    1.6417   -1.0372 H   0  0  0  0  0  0  0  0  0  0  0  0
   -1.7358    2.3147   -1.3706 H   0  0  0  0  0  0  0  0  0  0  0  0
   -0.4154   -1.2912    0.4881 H   0  0  0  0  0  0  0  0  0  0  0  0
   -2.7510   -1.9797    0.8365 H   0  0  0  0  0  0  0  0  0  0  0  0
    0.5855    1.5795   -1.5672 H   0  0  0  0  0  0  0  0  0  0  0  0
    3.4542    1.5382    0.1549 H   0  0  0  0  0  0  0  0  0  0  0  0
    3.1465    1.0170    1.8488 H   0  0  0  0  0  0  0  0  0  0  0  0
    1.8962   -0.9166    1.1450 H   0  0  0  0  0  0  0  0  0  0  0  0
    0.8215   -1.0582   -0.8631 H   0  0  0  0  0  0  0  0  0  0  0  0
    5.1682   -2.1180    0.3161 H   0  0  0  0  0  0  0  0  0  0  0  0
  1  2  2  0  0  0  0
  1  3  1  0  0  0  0
  3  4  2  0  0  0  0
  4  5  1  0  0  0  0
  5  6  2  0  0  0  0
  6  7  1  0  0  0  0
  7  8  2  0  0  0  0
  3  8  1  0  0  0  0
  6  9  1  0  0  0  0
  9 10  1  0  0  0  0
 10 11  1  0  0  0  0
 11 12  1  0  0  0  0
 12 13  1  0  0  0  0
  9 13  1  0  0  0  0
 12 14  1  0  0  0  0
 14 15  2  0  0  0  0
 14 16  1  0  0  0  0
  1 17  1  0  0  0  0
  2 18  1  0  0  0  0
  2 19  1  0  0  0  0
  4 20  1  0  0  0  0
  5 21  1  0  0  0  0
  7 22  1  0  0  0  0
  8 23  1  0  0  0  0
  9 24  1  0  0  0  0
 11 25  1  0  0  0  0
 11 26  1  0  0  0  0
 12 27  1  0  0  0  0
 13 28  1  0  0  0  0
 16 29  1  0  0  0  0
M  END
$$$$
