C7H6N4O2
APtclcactv12151716153D 0   0.00000     0.00000
 
 19 20  0  0  0  0  0  0  0  0999 V2000
   -2.4661    0.2921    0.0005 C   0  0  0  0  0  0  0  0  0  0  0  0
   -3.7308   -0.5273    0.0002 C   0  0  0  0  0  0  0  0  0  0  0  0
   -2.5281    1.4988    0.0064 O   0  0  0  0  0  0  0  0  0  0  0  0
   -1.2658   -0.3210   -0.0001 N   0  0  0  0  0  0  0  0  0  0  0  0
   -1.0503   -1.7050   -0.0015 N   0  0  0  0  0  0  0  0  0  0  0  0
    0.2304   -1.9471   -0.0017 C   0  0  0  0  0  0  0  0  0  0  0  0
    0.9177   -0.7164   -0.0004 C   0  0  0  0  0  0  0  0  0  0  0  0
   -0.0480    0.3004   -0.0054 C   0  0  0  0  0  0  0  0  0  0  0  0
    0.3492    1.5799   -0.0059 N   0  0  0  0  0  0  0  0  0  0  0  0
    1.6089    1.9091   -0.0020 C   0  0  0  0  0  0  0  0  0  0  0  0
    2.6111    0.9962    0.0029 N   0  0  0  0  0  0  0  0  0  0  0  0
    2.3277   -0.3276    0.0000 C   0  0  0  0  0  0  0  0  0  0  0  0
    3.2139   -1.1636    0.0043 O   0  0  0  0  0  0  0  0  0  0  0  0
   -4.5945    0.1375    0.0058 H   0  0  0  0  0  0  0  0  0  0  0  0
   -3.7588   -1.1520   -0.8926 H   0  0  0  0  0  0  0  0  0  0  0  0
   -3.7538   -1.1603    0.8873 H   0  0  0  0  0  0  0  0  0  0  0  0
    0.6878   -2.9255   -0.0024 H   0  0  0  0  0  0  0  0  0  0  0  0
    1.8673    2.9577   -0.0031 H   0  0  0  0  0  0  0  0  0  0  0  0
    3.5347    1.2926    0.0053 H   0  0  0  0  0  0  0  0  0  0  0  0
  1  2  1  0  0  0  0
  1  3  2  0  0  0  0
  1  4  1  0  0  0  0
  4  5  1  0  0  0  0
  5  6  2  0  0  0  0
  6  7  1  0  0  0  0
  7  8  2  0  0  0  0
  4  8  1  0  0  0  0
  8  9  1  0  0  0  0
  9 10  2  0  0  0  0
 10 11  1  0  0  0  0
 11 12  1  0  0  0  0
  7 12  1  0  0  0  0
 12 13  2  0  0  0  0
  2 14  1  0  0  0  0
  2 15  1  0  0  0  0
  2 16  1  0  0  0  0
  6 17  1  0  0  0  0
 10 18  1  0  0  0  0
 11 19  1  0  0  0  0
M  END
$$$$
