C7H5ClN4O2
APtclcactv12151716123D 0   0.00000     0.00000
 
 19 20  0  0  0  0  0  0  0  0999 V2000
   -4.3431    0.1903    0.0014 Cl  0  0  0  0  0  0  0  0  0  0  0  0
   -2.8447   -0.8124    0.0001 C   0  0  0  0  0  0  0  0  0  0  0  0
   -1.6370    0.0890    0.0007 C   0  0  0  0  0  0  0  0  0  0  0  0
   -1.7788    1.2890    0.0019 O   0  0  0  0  0  0  0  0  0  0  0  0
   -0.3988   -0.4432   -0.0001 N   0  0  0  0  0  0  0  0  0  0  0  0
   -0.0920   -1.8099   -0.0020 N   0  0  0  0  0  0  0  0  0  0  0  0
    1.2019   -1.9666   -0.0022 C   0  0  0  0  0  0  0  0  0  0  0  0
    1.8062   -0.6931   -0.0005 C   0  0  0  0  0  0  0  0  0  0  0  0
    0.7752    0.2575   -0.0051 C   0  0  0  0  0  0  0  0  0  0  0  0
    1.0867    1.5605   -0.0052 N   0  0  0  0  0  0  0  0  0  0  0  0
    2.3218    1.9725   -0.0011 C   0  0  0  0  0  0  0  0  0  0  0  0
    3.3823    1.1280    0.0035 N   0  0  0  0  0  0  0  0  0  0  0  0
    3.1873   -0.2116    0.0002 C   0  0  0  0  0  0  0  0  0  0  0  0
    4.1270   -0.9871    0.0042 O   0  0  0  0  0  0  0  0  0  0  0  0
   -2.8283   -1.4424    0.8894 H   0  0  0  0  0  0  0  0  0  0  0  0
   -2.8286   -1.4407   -0.8905 H   0  0  0  0  0  0  0  0  0  0  0  0
    1.7232   -2.9125   -0.0032 H   0  0  0  0  0  0  0  0  0  0  0  0
    2.5101    3.0360   -0.0018 H   0  0  0  0  0  0  0  0  0  0  0  0
    4.2842    1.4849    0.0061 H   0  0  0  0  0  0  0  0  0  0  0  0
  1  2  1  0  0  0  0
  2  3  1  0  0  0  0
  3  4  2  0  0  0  0
  3  5  1  0  0  0  0
  5  6  1  0  0  0  0
  6  7  2  0  0  0  0
  7  8  1  0  0  0  0
  8  9  2  0  0  0  0
  5  9  1  0  0  0  0
  9 10  1  0  0  0  0
 10 11  2  0  0  0  0
 11 12  1  0  0  0  0
 12 13  1  0  0  0  0
  8 13  1  0  0  0  0
 13 14  2  0  0  0  0
  2 15  1  0  0  0  0
  2 16  1  0  0  0  0
  7 17  1  0  0  0  0
 11 18  1  0  0  0  0
 12 19  1  0  0  0  0
M  END
$$$$
