C16H12N2O3
APtclcactv12211717103D 0   0.00000     0.00000
 
 33 35  0  0  0  0  0  0  0  0999 V2000
    0.5804   -1.2348   -0.0936 C   0  0  0  0  0  0  0  0  0  0  0  0
    0.3333   -2.3041    0.7469 C   0  0  0  0  0  0  0  0  0  0  0  0
    1.1064   -3.4466    0.6575 C   0  0  0  0  0  0  0  0  0  0  0  0
    2.1262   -3.5200   -0.2728 C   0  0  0  0  0  0  0  0  0  0  0  0
    2.3728   -2.4510   -1.1139 C   0  0  0  0  0  0  0  0  0  0  0  0
    1.6006   -1.3080   -1.0235 C   0  0  0  0  0  0  0  0  0  0  0  0
   -0.2663    0.0083   -0.0003 C   0  0  0  0  0  0  0  0  0  0  0  0
   -1.0627    0.1345   -1.2853 C   0  0  0  0  0  0  0  0  0  0  0  0
   -2.4083    0.1715   -1.1843 N   0  0  0  0  0  0  0  0  0  0  0  0
   -3.0322    0.1011   -0.0029 C   0  0  0  0  0  0  0  0  0  0  0  0
   -2.4167   -0.0115    1.1797 N   0  0  0  0  0  0  0  0  0  0  0  0
   -1.0718   -0.0644    1.2832 C   0  0  0  0  0  0  0  0  0  0  0  0
   -0.5278   -0.1670    2.3618 O   0  0  0  0  0  0  0  0  0  0  0  0
   -4.2464    0.1421   -0.0040 O   0  0  0  0  0  0  0  0  0  0  0  0
   -0.5110    0.2001   -2.3629 O   0  0  0  0  0  0  0  0  0  0  0  0
    0.6576    1.1948    0.0973 C   0  0  0  0  0  0  0  0  0  0  0  0
    1.6469    1.2230    1.0624 C   0  0  0  0  0  0  0  0  0  0  0  0
    2.4944    2.3114    1.1519 C   0  0  0  0  0  0  0  0  0  0  0  0
    2.3528    3.3715    0.2761 C   0  0  0  0  0  0  0  0  0  0  0  0
    1.3641    3.3430   -0.6896 C   0  0  0  0  0  0  0  0  0  0  0  0
    0.5194    2.2526   -0.7819 C   0  0  0  0  0  0  0  0  0  0  0  0
   -0.4635   -2.2468    1.4737 H   0  0  0  0  0  0  0  0  0  0  0  0
    0.9137   -4.2818    1.3146 H   0  0  0  0  0  0  0  0  0  0  0  0
    2.7306   -4.4123   -0.3422 H   0  0  0  0  0  0  0  0  0  0  0  0
    3.1700   -2.5081   -1.8402 H   0  0  0  0  0  0  0  0  0  0  0  0
    1.7935   -0.4727   -1.6804 H   0  0  0  0  0  0  0  0  0  0  0  0
   -2.9387    0.2519   -1.9925 H   0  0  0  0  0  0  0  0  0  0  0  0
   -2.9528   -0.0559    1.9868 H   0  0  0  0  0  0  0  0  0  0  0  0
    1.7575    0.3947    1.7466 H   0  0  0  0  0  0  0  0  0  0  0  0
    3.2669    2.3337    1.9063 H   0  0  0  0  0  0  0  0  0  0  0  0
    3.0145    4.2222    0.3465 H   0  0  0  0  0  0  0  0  0  0  0  0
    1.2532    4.1713   -1.3736 H   0  0  0  0  0  0  0  0  0  0  0  0
   -0.2531    2.2303   -1.5363 H   0  0  0  0  0  0  0  0  0  0  0  0
  1  2  2  0  0  0  0
  2  3  1  0  0  0  0
  3  4  2  0  0  0  0
  4  5  1  0  0  0  0
  5  6  2  0  0  0  0
  1  6  1  0  0  0  0
  1  7  1  0  0  0  0
  7  8  1  0  0  0  0
  8  9  1  0  0  0  0
  9 10  1  0  0  0  0
 10 11  1  0  0  0  0
 11 12  1  0  0  0  0
  7 12  1  0  0  0  0
 12 13  2  0  0  0  0
 10 14  2  0  0  0  0
  8 15  2  0  0  0  0
  7 16  1  0  0  0  0
 16 17  2  0  0  0  0
 17 18  1  0  0  0  0
 18 19  2  0  0  0  0
 19 20  1  0  0  0  0
 20 21  2  0  0  0  0
 16 21  1  0  0  0  0
  2 22  1  0  0  0  0
  3 23  1  0  0  0  0
  4 24  1  0  0  0  0
  5 25  1  0  0  0  0
  6 26  1  0  0  0  0
  9 27  1  0  0  0  0
 11 28  1  0  0  0  0
 17 29  1  0  0  0  0
 18 30  1  0  0  0  0
 19 31  1  0  0  0  0
 20 32  1  0  0  0  0
 21 33  1  0  0  0  0
M  END
$$$$
