C10H16N2O3
APtclcactv12211717273D 0   0.00000     0.00000
 
 31 31  0  0  0  0  0  0  0  0999 V2000
    1.4124    0.7005   -1.0142 C   0  0  0  0  0  0  0  0  0  0  0  0
    0.5507    1.4839   -2.0065 C   0  0  0  0  0  0  0  0  0  0  0  0
    2.3529    1.6623   -0.2852 C   0  0  0  0  0  0  0  0  0  0  0  0
    0.5096    0.0006    0.0036 C   0  0  0  0  0  0  0  0  0  0  0  0
   -0.2918    1.0625    0.7326 C   0  0  0  0  0  0  0  0  0  0  0  0
   -1.6378    0.9789    0.6731 N   0  0  0  0  0  0  0  0  0  0  0  0
   -2.2578    0.0027    0.0003 C   0  0  0  0  0  0  0  0  0  0  0  0
   -1.6377   -0.9743   -0.6712 N   0  0  0  0  0  0  0  0  0  0  0  0
   -0.2917   -1.0603   -0.7271 C   0  0  0  0  0  0  0  0  0  0  0  0
    0.2565   -1.9512   -1.3399 O   0  0  0  0  0  0  0  0  0  0  0  0
   -3.4727    0.0037   -0.0013 O   0  0  0  0  0  0  0  0  0  0  0  0
    0.2563    1.9529    1.3462 O   0  0  0  0  0  0  0  0  0  0  0  0
    1.4054   -0.7042    1.0243 C   0  0  0  0  0  0  0  0  0  0  0  0
    0.5404   -1.5345    1.9747 C   0  0  0  0  0  0  0  0  0  0  0  0
    2.3864   -1.6231    0.2934 C   0  0  0  0  0  0  0  0  0  0  0  0
    1.9995   -0.0442   -1.5517 H   0  0  0  0  0  0  0  0  0  0  0  0
    1.1939    1.9825   -2.7316 H   0  0  0  0  0  0  0  0  0  0  0  0
   -0.1193    0.7987   -2.5258 H   0  0  0  0  0  0  0  0  0  0  0  0
   -0.0363    2.2285   -1.4690 H   0  0  0  0  0  0  0  0  0  0  0  0
    1.7658    2.4069    0.2523 H   0  0  0  0  0  0  0  0  0  0  0  0
    2.9668    1.1042    0.4217 H   0  0  0  0  0  0  0  0  0  0  0  0
    2.9961    2.1609   -1.0103 H   0  0  0  0  0  0  0  0  0  0  0  0
   -2.1714    1.6467    1.1315 H   0  0  0  0  0  0  0  0  0  0  0  0
   -2.1712   -1.6413   -1.1310 H   0  0  0  0  0  0  0  0  0  0  0  0
    1.9610    0.0399    1.5951 H   0  0  0  0  0  0  0  0  0  0  0  0
    1.1786   -2.0366    2.7018 H   0  0  0  0  0  0  0  0  0  0  0  0
   -0.1585   -0.8799    2.4954 H   0  0  0  0  0  0  0  0  0  0  0  0
   -0.0152   -2.2785    1.4039 H   0  0  0  0  0  0  0  0  0  0  0  0
    2.9219   -1.0527   -0.4656 H   0  0  0  0  0  0  0  0  0  0  0  0
    3.0988   -2.0357    1.0077 H   0  0  0  0  0  0  0  0  0  0  0  0
    1.8373   -2.4355   -0.1828 H   0  0  0  0  0  0  0  0  0  0  0  0
  1  2  1  0  0  0  0
  1  3  1  0  0  0  0
  1  4  1  0  0  0  0
  4  5  1  0  0  0  0
  5  6  1  0  0  0  0
  6  7  1  0  0  0  0
  7  8  1  0  0  0  0
  8  9  1  0  0  0  0
  4  9  1  0  0  0  0
  9 10  2  0  0  0  0
  7 11  2  0  0  0  0
  5 12  2  0  0  0  0
  4 13  1  0  0  0  0
 13 14  1  0  0  0  0
 13 15  1  0  0  0  0
  1 16  1  0  0  0  0
  2 17  1  0  0  0  0
  2 18  1  0  0  0  0
  2 19  1  0  0  0  0
  3 20  1  0  0  0  0
  3 21  1  0  0  0  0
  3 22  1  0  0  0  0
  6 23  1  0  0  0  0
  8 24  1  0  0  0  0
 13 25  1  0  0  0  0
 14 26  1  0  0  0  0
 14 27  1  0  0  0  0
 14 28  1  0  0  0  0
 15 29  1  0  0  0  0
 15 30  1  0  0  0  0
 15 31  1  0  0  0  0
M  END
$$$$
