C10H12O
APtclcactv12211717243D 0   0.00000     0.00000
 
 23 24  0  0  0  0  0  0  0  0999 V2000
   -1.0770   -1.0629    0.0313 C   0  0  0  0  0  0  0  0  0  0  0  0
   -2.1478   -0.1865   -0.0064 C   0  0  0  0  0  0  0  0  0  0  0  0
   -1.9146    1.1805   -0.0562 C   0  0  0  0  0  0  0  0  0  0  0  0
   -0.6198    1.6526   -0.0701 C   0  0  0  0  0  0  0  0  0  0  0  0
    0.4550    0.7726   -0.0339 C   0  0  0  0  0  0  0  0  0  0  0  0
    1.8420    1.3601   -0.0597 C   0  0  0  0  0  0  0  0  0  0  0  0
    2.8693    0.3331    0.4119 C   0  0  0  0  0  0  0  0  0  0  0  0
    2.6587   -0.9612   -0.3827 C   0  0  0  0  0  0  0  0  0  0  0  0
    1.3434   -1.5938    0.0673 C   0  0  0  0  0  0  0  0  0  0  0  0
    0.2262   -0.5843    0.0195 C   0  0  0  0  0  0  0  0  0  0  0  0
   -3.4207   -0.6623    0.0049 O   0  0  0  0  0  0  0  0  0  0  0  0
   -1.2567   -2.1269    0.0747 H   0  0  0  0  0  0  0  0  0  0  0  0
   -2.7442    1.8715   -0.0843 H   0  0  0  0  0  0  0  0  0  0  0  0
   -0.4388    2.7166   -0.1099 H   0  0  0  0  0  0  0  0  0  0  0  0
    2.0829    1.6684   -1.0770 H   0  0  0  0  0  0  0  0  0  0  0  0
    1.8761    2.2299    0.5964 H   0  0  0  0  0  0  0  0  0  0  0  0
    3.8757    0.7127    0.2352 H   0  0  0  0  0  0  0  0  0  0  0  0
    2.7316    0.1376    1.4753 H   0  0  0  0  0  0  0  0  0  0  0  0
    2.6117   -0.7346   -1.4478 H   0  0  0  0  0  0  0  0  0  0  0  0
    3.4819   -1.6489   -0.1891 H   0  0  0  0  0  0  0  0  0  0  0  0
    1.1023   -2.4284   -0.5909 H   0  0  0  0  0  0  0  0  0  0  0  0
    1.4519   -1.9612    1.0878 H   0  0  0  0  0  0  0  0  0  0  0  0
   -3.7934   -0.7675    0.8910 H   0  0  0  0  0  0  0  0  0  0  0  0
  1  2  2  0  0  0  0
  2  3  1  0  0  0  0
  3  4  2  0  0  0  0
  4  5  1  0  0  0  0
  5  6  1  0  0  0  0
  6  7  1  0  0  0  0
  7  8  1  0  0  0  0
  8  9  1  0  0  0  0
  9 10  1  0  0  0  0
  1 10  1  0  0  0  0
  5 10  2  0  0  0  0
  2 11  1  0  0  0  0
  1 12  1  0  0  0  0
  3 13  1  0  0  0  0
  4 14  1  0  0  0  0
  6 15  1  0  0  0  0
  6 16  1  0  0  0  0
  7 17  1  0  0  0  0
  7 18  1  0  0  0  0
  8 19  1  0  0  0  0
  8 20  1  0  0  0  0
  9 21  1  0  0  0  0
  9 22  1  0  0  0  0
 11 23  1  0  0  0  0
M  END
$$$$
