C6H8N4O2
APtclcactv12211716553D 0   0.00000     0.00000
 
 20 20  0  0  0  0  0  0  0  0999 V2000
   -1.4333    2.2834   -0.0005 N   0  0  0  0  0  0  0  0  0  0  0  0
   -1.7565    0.9207   -0.0009 C   0  0  0  0  0  0  0  0  0  0  0  0
   -0.7517   -0.0577   -0.0003 C   0  0  0  0  0  0  0  0  0  0  0  0
   -1.1036   -1.3382   -0.0002 N   0  0  0  0  0  0  0  0  0  0  0  0
   -2.3750   -1.6883   -0.0006 C   0  0  0  0  0  0  0  0  0  0  0  0
   -3.3440   -0.7965   -0.0015 N   0  0  0  0  0  0  0  0  0  0  0  0
   -3.0782    0.5027    0.0041 C   0  0  0  0  0  0  0  0  0  0  0  0
    0.5879    0.3062   -0.0003 N   0  0  0  0  0  0  0  0  0  0  0  0
    1.6274   -0.7261    0.0003 C   0  0  0  0  0  0  0  0  0  0  0  0
    2.9850   -0.0719    0.0001 C   0  0  0  0  0  0  0  0  0  0  0  0
    3.0750    1.1330   -0.0004 O   0  0  0  0  0  0  0  0  0  0  0  0
    4.0942   -0.8278    0.0006 O   0  0  0  0  0  0  0  0  0  0  0  0
   -0.5040    2.5614    0.0001 H   0  0  0  0  0  0  0  0  0  0  0  0
   -2.1387    2.9492   -0.0050 H   0  0  0  0  0  0  0  0  0  0  0  0
   -2.6292   -2.7379   -0.0005 H   0  0  0  0  0  0  0  0  0  0  0  0
   -3.8808    1.2254    0.0036 H   0  0  0  0  0  0  0  0  0  0  0  0
    0.8357    1.2440   -0.0007 H   0  0  0  0  0  0  0  0  0  0  0  0
    1.5230   -1.3463    0.8906 H   0  0  0  0  0  0  0  0  0  0  0  0
    1.5232   -1.3471   -0.8894 H   0  0  0  0  0  0  0  0  0  0  0  0
    4.9422   -0.3631    0.0005 H   0  0  0  0  0  0  0  0  0  0  0  0
  1  2  1  0  0  0  0
  2  3  1  0  0  0  0
  3  4  2  0  0  0  0
  4  5  1  0  0  0  0
  5  6  2  0  0  0  0
  6  7  1  0  0  0  0
  2  7  2  0  0  0  0
  3  8  1  0  0  0  0
  8  9  1  0  0  0  0
  9 10  1  0  0  0  0
 10 11  2  0  0  0  0
 10 12  1  0  0  0  0
  1 13  1  0  0  0  0
  1 14  1  0  0  0  0
  5 15  1  0  0  0  0
  7 16  1  0  0  0  0
  8 17  1  0  0  0  0
  9 18  1  0  0  0  0
  9 19  1  0  0  0  0
 12 20  1  0  0  0  0
M  END
$$$$
