C4H3BrN2O2
APtclcactv12211716363D 0   0.00000     0.00000
 
 12 12  0  0  0  0  0  0  0  0999 V2000
   -2.0306   -0.1784   -0.0004 Br  0  0  0  0  0  0  0  0  0  0  0  0
   -0.1396   -0.1895   -0.0004 C   0  0  0  0  0  0  0  0  0  0  0  0
    0.5853    1.0274    0.0004 C   0  0  0  0  0  0  0  0  0  0  0  0
    1.9332    0.9945    0.0004 N   0  0  0  0  0  0  0  0  0  0  0  0
    2.5833   -0.1841   -0.0005 C   0  0  0  0  0  0  0  0  0  0  0  0
    1.9070   -1.3472   -0.0013 N   0  0  0  0  0  0  0  0  0  0  0  0
    0.5379   -1.3577    0.0044 C   0  0  0  0  0  0  0  0  0  0  0  0
    3.7991   -0.1978   -0.0009 O   0  0  0  0  0  0  0  0  0  0  0  0
   -0.0034    2.0934    0.0008 O   0  0  0  0  0  0  0  0  0  0  0  0
    2.4366    1.8236    0.0006 H   0  0  0  0  0  0  0  0  0  0  0  0
    2.3940   -2.1861   -0.0023 H   0  0  0  0  0  0  0  0  0  0  0  0
    0.0025   -2.2956    0.0040 H   0  0  0  0  0  0  0  0  0  0  0  0
  1  2  1  0  0  0  0
  2  3  1  0  0  0  0
  3  4  1  0  0  0  0
  4  5  1  0  0  0  0
  5  6  1  0  0  0  0
  6  7  1  0  0  0  0
  2  7  2  0  0  0  0
  5  8  2  0  0  0  0
  3  9  2  0  0  0  0
  4 10  1  0  0  0  0
  6 11  1  0  0  0  0
  7 12  1  0  0  0  0
M  END
$$$$
