C4H6BrNO4
APtclcactv12211716373D 0   0.00000     0.00000
 
 16 16  0  0  0  0  0  0  0  0999 V2000
    0.6287   -1.3802   -0.0001 Br  0  0  0  0  0  0  0  0  0  0  0  0
    0.0712    0.5051    0.0008 C   0  0  0  0  0  0  0  0  0  0  0  0
   -0.7728    0.7916   -1.2460 C   0  0  0  0  0  0  0  0  0  0  0  0
   -1.9872    0.0388   -1.1678 O   0  0  0  0  0  0  0  0  0  0  0  0
   -2.7642    0.3181   -0.0007 C   0  0  0  0  0  0  0  0  0  0  0  0
   -1.9883    0.0374    1.1668 O   0  0  0  0  0  0  0  0  0  0  0  0
   -0.7740    0.7900    1.2470 C   0  0  0  0  0  0  0  0  0  0  0  0
    1.2558    1.3671    0.0003 N   0  3  0  0  0  0  0  0  0  0  0  0
    2.3689    0.8726   -0.0005 O   0  0  0  0  0  0  0  0  0  0  0  0
    1.1275    2.5784    0.0007 O   0  5  0  0  0  0  0  0  0  0  0  0
   -1.0053    1.8554   -1.2927 H   0  0  0  0  0  0  0  0  0  0  0  0
   -0.2183    0.4982   -2.1373 H   0  0  0  0  0  0  0  0  0  0  0  0
   -3.0543    1.3688   -0.0002 H   0  0  0  0  0  0  0  0  0  0  0  0
   -3.6581   -0.3056   -0.0015 H   0  0  0  0  0  0  0  0  0  0  0  0
   -0.2204    0.4956    2.1386 H   0  0  0  0  0  0  0  0  0  0  0  0
   -1.0066    1.8539    1.2948 H   0  0  0  0  0  0  0  0  0  0  0  0
  1  2  1  0  0  0  0
  2  3  1  0  0  0  0
  3  4  1  0  0  0  0
  4  5  1  0  0  0  0
  5  6  1  0  0  0  0
  6  7  1  0  0  0  0
  2  7  1  0  0  0  0
  2  8  1  0  0  0  0
  8  9  2  0  0  0  0
  8 10  1  0  0  0  0
  3 11  1  0  0  0  0
  3 12  1  0  0  0  0
  5 13  1  0  0  0  0
  5 14  1  0  0  0  0
  7 15  1  0  0  0  0
  7 16  1  0  0  0  0
M  CHG  2   8   1  10  -1
M  END
$$$$
