C6H10BrNO4
APtclcactv12211716553D 0   0.00000     0.00000
 
 22 22  0  0  0  0  0  0  0  0999 V2000
    1.2086   -1.3308   -0.0000 Br  0  0  0  0  0  0  0  0  0  0  0  0
    0.4483    0.4823    0.0008 C   0  0  0  0  0  0  0  0  0  0  0  0
   -0.4222    0.6746   -1.2459 C   0  0  0  0  0  0  0  0  0  0  0  0
   -1.5470   -0.2064   -1.1675 O   0  0  0  0  0  0  0  0  0  0  0  0
   -2.3497   -0.0137   -0.0003 C   0  0  0  0  0  0  0  0  0  0  0  0
   -1.5476   -0.2077    1.1672 O   0  0  0  0  0  0  0  0  0  0  0  0
   -0.4229    0.6732    1.2471 C   0  0  0  0  0  0  0  0  0  0  0  0
   -2.9157    1.4078    0.0004 C   0  0  0  0  0  0  0  0  0  0  0  0
   -3.5012   -1.0211   -0.0011 C   0  0  0  0  0  0  0  0  0  0  0  0
    1.5314    1.4687    0.0001 N   0  3  0  0  0  0  0  0  0  0  0  0
    2.6919    1.0989   -0.0009 O   0  0  0  0  0  0  0  0  0  0  0  0
    1.2715    2.6586    0.0004 O   0  5  0  0  0  0  0  0  0  0  0  0
   -0.7697    1.7067   -1.2926 H   0  0  0  0  0  0  0  0  0  0  0  0
    0.1609    0.4435   -2.1373 H   0  0  0  0  0  0  0  0  0  0  0  0
    0.1598    0.4412    2.1387 H   0  0  0  0  0  0  0  0  0  0  0  0
   -0.7704    1.7053    1.2948 H   0  0  0  0  0  0  0  0  0  0  0  0
   -3.5273    1.5558   -0.8897 H   0  0  0  0  0  0  0  0  0  0  0  0
   -3.5278    1.5548    0.8903 H   0  0  0  0  0  0  0  0  0  0  0  0
   -2.0954    2.1255    0.0010 H   0  0  0  0  0  0  0  0  0  0  0  0
   -3.0980   -2.0338   -0.0016 H   0  0  0  0  0  0  0  0  0  0  0  0
   -4.1132   -0.8741    0.8888 H   0  0  0  0  0  0  0  0  0  0  0  0
   -4.1128   -0.8732   -0.8912 H   0  0  0  0  0  0  0  0  0  0  0  0
  1  2  1  0  0  0  0
  2  3  1  0  0  0  0
  3  4  1  0  0  0  0
  4  5  1  0  0  0  0
  5  6  1  0  0  0  0
  6  7  1  0  0  0  0
  2  7  1  0  0  0  0
  5  8  1  0  0  0  0
  5  9  1  0  0  0  0
  2 10  1  0  0  0  0
 10 11  2  0  0  0  0
 10 12  1  0  0  0  0
  3 13  1  0  0  0  0
  3 14  1  0  0  0  0
  7 15  1  0  0  0  0
  7 16  1  0  0  0  0
  8 17  1  0  0  0  0
  8 18  1  0  0  0  0
  8 19  1  0  0  0  0
  9 20  1  0  0  0  0
  9 21  1  0  0  0  0
  9 22  1  0  0  0  0
M  CHG  2  10   1  12  -1
M  END
$$$$
