C6H10BrNO4
APtclcactv12211716553D 0   0.00000     0.00000
 
 22 22  0  0  0  0  0  0  0  0999 V2000
   -2.3003   -0.6595   -0.0392 Br  0  0  0  0  0  0  0  0  0  0  0  0
   -0.4621    0.0337    0.0347 C   0  0  0  0  0  0  0  0  0  0  0  0
    0.1735   -0.3387    1.3786 C   0  0  0  0  0  0  0  0  0  0  0  0
    1.5492    0.0546    1.3667 O   0  0  0  0  0  0  0  0  0  0  0  0
    2.3083   -0.5359    0.3089 C   0  0  0  0  0  0  0  0  0  0  0  0
    1.7304   -0.1790   -0.9491 O   0  0  0  0  0  0  0  0  0  0  0  0
    0.3670   -0.5883   -1.0943 C   0  0  0  0  0  0  0  0  0  0  0  0
    3.7501   -0.0276    0.3704 C   0  0  0  0  0  0  0  0  0  0  0  0
    4.5917   -0.7524   -0.6819 C   0  0  0  0  0  0  0  0  0  0  0  0
   -0.4808    1.4912   -0.1123 N   0  3  0  0  0  0  0  0  0  0  0  0
   -1.5402    2.0755   -0.2531 O   0  0  0  0  0  0  0  0  0  0  0  0
    0.5630    2.1186   -0.0937 O   0  5  0  0  0  0  0  0  0  0  0  0
   -0.3470    0.1788    2.1844 H   0  0  0  0  0  0  0  0  0  0  0  0
    0.1033   -1.4160    1.5294 H   0  0  0  0  0  0  0  0  0  0  0  0
    2.3005   -1.6205    0.4177 H   0  0  0  0  0  0  0  0  0  0  0  0
    0.3041   -1.6750   -1.0372 H   0  0  0  0  0  0  0  0  0  0  0  0
   -0.0152   -0.2492   -2.0572 H   0  0  0  0  0  0  0  0  0  0  0  0
    3.7661    1.0443    0.1732 H   0  0  0  0  0  0  0  0  0  0  0  0
    4.1616   -0.2209    1.3610 H   0  0  0  0  0  0  0  0  0  0  0  0
    5.6189   -0.3902   -0.6380 H   0  0  0  0  0  0  0  0  0  0  0  0
    4.5757   -1.8242   -0.4847 H   0  0  0  0  0  0  0  0  0  0  0  0
    4.1802   -0.5590   -1.6725 H   0  0  0  0  0  0  0  0  0  0  0  0
  1  2  1  0  0  0  0
  2  3  1  0  0  0  0
  3  4  1  0  0  0  0
  4  5  1  0  0  0  0
  5  6  1  0  0  0  0
  6  7  1  0  0  0  0
  2  7  1  0  0  0  0
  5  8  1  0  0  0  0
  8  9  1  0  0  0  0
  2 10  1  0  0  0  0
 10 11  2  0  0  0  0
 10 12  1  0  0  0  0
  3 13  1  0  0  0  0
  3 14  1  0  0  0  0
  5 15  1  0  0  0  0
  7 16  1  0  0  0  0
  7 17  1  0  0  0  0
  8 18  1  0  0  0  0
  8 19  1  0  0  0  0
  9 20  1  0  0  0  0
  9 21  1  0  0  0  0
  9 22  1  0  0  0  0
M  CHG  2  10   1  12  -1
M  END
$$$$
