C5H6N2O4
APtclcactv12211716423D 0   0.00000     0.00000
 
 17 17  0  0  0  0  0  0  0  0999 V2000
    2.3373   -0.1021   -0.0367 C   0  0  0  0  0  0  0  0  0  0  0  0
    2.2878   -0.8205    0.9335 O   0  0  0  0  0  0  0  0  0  0  0  0
    3.4814    0.0125   -0.7293 O   0  0  0  0  0  0  0  0  0  0  0  0
    1.1128    0.6604   -0.4729 C   0  0  0  0  0  0  0  0  0  0  0  0
   -0.0465    0.3496    0.4759 C   0  0  0  0  0  0  0  0  0  0  0  0
   -1.2566    1.1962    0.1348 C   0  0  0  0  0  0  0  0  0  0  0  0
   -2.2293    0.3245   -0.1973 N   0  0  0  0  0  0  0  0  0  0  0  0
   -1.8063   -0.9421   -0.1141 C   0  0  0  0  0  0  0  0  0  0  0  0
   -0.5224   -1.0304    0.2780 N   0  0  0  0  0  0  0  0  0  0  0  0
   -2.5038   -1.9052   -0.3652 O   0  0  0  0  0  0  0  0  0  0  0  0
   -1.3337    2.4059    0.1567 O   0  0  0  0  0  0  0  0  0  0  0  0
    4.2388   -0.4991   -0.4136 H   0  0  0  0  0  0  0  0  0  0  0  0
    1.3236    1.7296   -0.4509 H   0  0  0  0  0  0  0  0  0  0  0  0
    0.8423    0.3643   -1.4864 H   0  0  0  0  0  0  0  0  0  0  0  0
    0.2537    0.5093    1.5116 H   0  0  0  0  0  0  0  0  0  0  0  0
   -3.1255    0.5833   -0.4631 H   0  0  0  0  0  0  0  0  0  0  0  0
   -0.0100   -1.8441    0.4052 H   0  0  0  0  0  0  0  0  0  0  0  0
  1  2  2  0  0  0  0
  1  3  1  0  0  0  0
  1  4  1  0  0  0  0
  4  5  1  0  0  0  0
  5  6  1  0  0  0  0
  6  7  1  0  0  0  0
  7  8  1  0  0  0  0
  8  9  1  0  0  0  0
  5  9  1  0  0  0  0
  8 10  2  0  0  0  0
  6 11  2  0  0  0  0
  3 12  1  0  0  0  0
  4 13  1  0  0  0  0
  4 14  1  0  0  0  0
  5 15  1  0  0  0  0
  7 16  1  0  0  0  0
  9 17  1  0  0  0  0
M  END
$$$$
