C11H12N2O2
APtclcactv12211717323D 0   0.00000     0.00000
 
 27 28  0  0  0  0  0  0  0  0999 V2000
   -0.5993   -1.7441    0.9819 C   0  0  0  0  0  0  0  0  0  0  0  0
   -2.0939   -2.0412    1.1196 C   0  0  0  0  0  0  0  0  0  0  0  0
   -0.4094   -0.4022    0.2720 C   0  0  0  0  0  0  0  0  0  0  0  0
   -1.0474   -0.4311   -1.1027 C   0  0  0  0  0  0  0  0  0  0  0  0
   -2.0001    0.5220   -1.0824 N   0  0  0  0  0  0  0  0  0  0  0  0
   -2.0520    1.1426    0.1018 C   0  0  0  0  0  0  0  0  0  0  0  0
   -1.1457    0.6639    0.9730 N   0  0  0  0  0  0  0  0  0  0  0  0
   -2.8312    2.0384    0.3614 O   0  0  0  0  0  0  0  0  0  0  0  0
   -0.7601   -1.1596   -2.0282 O   0  0  0  0  0  0  0  0  0  0  0  0
    1.0549   -0.0608    0.1698 C   0  0  0  0  0  0  0  0  0  0  0  0
    1.4574    1.2616    0.1623 C   0  0  0  0  0  0  0  0  0  0  0  0
    2.8005    1.5748    0.0685 C   0  0  0  0  0  0  0  0  0  0  0  0
    3.7412    0.5655   -0.0173 C   0  0  0  0  0  0  0  0  0  0  0  0
    3.3388   -0.7569   -0.0089 C   0  0  0  0  0  0  0  0  0  0  0  0
    1.9959   -1.0702    0.0893 C   0  0  0  0  0  0  0  0  0  0  0  0
   -0.1452   -1.6989    1.9718 H   0  0  0  0  0  0  0  0  0  0  0  0
   -0.1240   -2.5336    0.3998 H   0  0  0  0  0  0  0  0  0  0  0  0
   -2.5692   -1.2517    1.7017 H   0  0  0  0  0  0  0  0  0  0  0  0
   -2.5480   -2.0864    0.1297 H   0  0  0  0  0  0  0  0  0  0  0  0
   -2.2292   -2.9972    1.6254 H   0  0  0  0  0  0  0  0  0  0  0  0
   -2.5765    0.7324   -1.8336 H   0  0  0  0  0  0  0  0  0  0  0  0
   -1.0047    0.9623    1.8852 H   0  0  0  0  0  0  0  0  0  0  0  0
    0.7225    2.0502    0.2293 H   0  0  0  0  0  0  0  0  0  0  0  0
    3.1149    2.6080    0.0619 H   0  0  0  0  0  0  0  0  0  0  0  0
    4.7905    0.8102   -0.0913 H   0  0  0  0  0  0  0  0  0  0  0  0
    4.0737   -1.5455   -0.0763 H   0  0  0  0  0  0  0  0  0  0  0  0
    1.6815   -2.1034    0.0959 H   0  0  0  0  0  0  0  0  0  0  0  0
  1  2  1  0  0  0  0
  1  3  1  0  0  0  0
  3  4  1  0  0  0  0
  4  5  1  0  0  0  0
  5  6  1  0  0  0  0
  6  7  1  0  0  0  0
  3  7  1  0  0  0  0
  6  8  2  0  0  0  0
  4  9  2  0  0  0  0
  3 10  1  0  0  0  0
 10 11  2  0  0  0  0
 11 12  1  0  0  0  0
 12 13  2  0  0  0  0
 13 14  1  0  0  0  0
 14 15  2  0  0  0  0
 10 15  1  0  0  0  0
  1 16  1  0  0  0  0
  1 17  1  0  0  0  0
  2 18  1  0  0  0  0
  2 19  1  0  0  0  0
  2 20  1  0  0  0  0
  5 21  1  0  0  0  0
  7 22  1  0  0  0  0
 11 23  1  0  0  0  0
 12 24  1  0  0  0  0
 13 25  1  0  0  0  0
 14 26  1  0  0  0  0
 15 27  1  0  0  0  0
M  END
$$$$
