C14H24N2O3
APtclcactv12211717043D 0   0.00000     0.00000
 
 43 43  0  0  0  0  0  0  0  0999 V2000
   -3.1236   -1.9304    0.0298 C   0  0  0  0  0  0  0  0  0  0  0  0
   -4.5179   -1.3063   -0.0557 C   0  0  0  0  0  0  0  0  0  0  0  0
   -2.0676   -0.8234    0.0159 C   0  0  0  0  0  0  0  0  0  0  0  0
   -2.2140   -0.0476   -1.2795 C   0  0  0  0  0  0  0  0  0  0  0  0
   -2.4535    1.2778   -1.1893 N   0  0  0  0  0  0  0  0  0  0  0  0
   -2.5611    1.8996   -0.0096 C   0  0  0  0  0  0  0  0  0  0  0  0
   -2.4478    1.3011    1.1816 N   0  0  0  0  0  0  0  0  0  0  0  0
   -2.2068   -0.0222    1.2966 C   0  0  0  0  0  0  0  0  0  0  0  0
   -2.1069   -0.5509    2.3829 O   0  0  0  0  0  0  0  0  0  0  0  0
   -2.7779    3.0949   -0.0208 O   0  0  0  0  0  0  0  0  0  0  0  0
   -2.1190   -0.5975   -2.3557 O   0  0  0  0  0  0  0  0  0  0  0  0
   -0.6884   -1.4856    0.0211 C   0  0  0  0  0  0  0  0  0  0  0  0
    0.3958   -0.4060    0.0074 C   0  0  0  0  0  0  0  0  0  0  0  0
    1.7750   -1.0683    0.0125 C   0  0  0  0  0  0  0  0  0  0  0  0
    2.8591    0.0113   -0.0011 C   0  0  0  0  0  0  0  0  0  0  0  0
    4.2384   -0.6510    0.0040 C   0  0  0  0  0  0  0  0  0  0  0  0
    5.3225    0.4286   -0.0096 C   0  0  0  0  0  0  0  0  0  0  0  0
    6.7017   -0.2336   -0.0045 C   0  0  0  0  0  0  0  0  0  0  0  0
    7.7859    0.8459   -0.0181 C   0  0  0  0  0  0  0  0  0  0  0  0
   -3.0379   -2.5028    0.9535 H   0  0  0  0  0  0  0  0  0  0  0  0
   -2.9684   -2.5913   -0.8229 H   0  0  0  0  0  0  0  0  0  0  0  0
   -5.2703   -2.0949   -0.0458 H   0  0  0  0  0  0  0  0  0  0  0  0
   -4.6731   -0.6454    0.7970 H   0  0  0  0  0  0  0  0  0  0  0  0
   -4.6037   -0.7339   -0.9794 H   0  0  0  0  0  0  0  0  0  0  0  0
   -2.5508    1.7949   -2.0043 H   0  0  0  0  0  0  0  0  0  0  0  0
   -2.5408    1.8341    1.9867 H   0  0  0  0  0  0  0  0  0  0  0  0
   -0.5818   -2.0962    0.9177 H   0  0  0  0  0  0  0  0  0  0  0  0
   -0.5847   -2.1158   -0.8622 H   0  0  0  0  0  0  0  0  0  0  0  0
    0.2892    0.2046   -0.8892 H   0  0  0  0  0  0  0  0  0  0  0  0
    0.2920    0.2242    0.8907 H   0  0  0  0  0  0  0  0  0  0  0  0
    1.8815   -1.6789    0.9091 H   0  0  0  0  0  0  0  0  0  0  0  0
    1.8787   -1.6985   -0.8707 H   0  0  0  0  0  0  0  0  0  0  0  0
    2.7526    0.6219   -0.8977 H   0  0  0  0  0  0  0  0  0  0  0  0
    2.7554    0.6415    0.8822 H   0  0  0  0  0  0  0  0  0  0  0  0
    4.3449   -1.2616    0.9006 H   0  0  0  0  0  0  0  0  0  0  0  0
    4.3421   -1.2812   -0.8792 H   0  0  0  0  0  0  0  0  0  0  0  0
    5.2159    1.0392   -0.9062 H   0  0  0  0  0  0  0  0  0  0  0  0
    5.2188    1.0588    0.8736 H   0  0  0  0  0  0  0  0  0  0  0  0
    6.8083   -0.8443    0.8921 H   0  0  0  0  0  0  0  0  0  0  0  0
    6.8054   -0.8639   -0.8878 H   0  0  0  0  0  0  0  0  0  0  0  0
    7.6793    1.4565   -0.9147 H   0  0  0  0  0  0  0  0  0  0  0  0
    7.6821    1.4761    0.8651 H   0  0  0  0  0  0  0  0  0  0  0  0
    8.7685    0.3741   -0.0145 H   0  0  0  0  0  0  0  0  0  0  0  0
  1  2  1  0  0  0  0
  1  3  1  0  0  0  0
  3  4  1  0  0  0  0
  4  5  1  0  0  0  0
  5  6  1  0  0  0  0
  6  7  1  0  0  0  0
  7  8  1  0  0  0  0
  3  8  1  0  0  0  0
  8  9  2  0  0  0  0
  6 10  2  0  0  0  0
  4 11  2  0  0  0  0
  3 12  1  0  0  0  0
 12 13  1  0  0  0  0
 13 14  1  0  0  0  0
 14 15  1  0  0  0  0
 15 16  1  0  0  0  0
 16 17  1  0  0  0  0
 17 18  1  0  0  0  0
 18 19  1  0  0  0  0
  1 20  1  0  0  0  0
  1 21  1  0  0  0  0
  2 22  1  0  0  0  0
  2 23  1  0  0  0  0
  2 24  1  0  0  0  0
  5 25  1  0  0  0  0
  7 26  1  0  0  0  0
 12 27  1  0  0  0  0
 12 28  1  0  0  0  0
 13 29  1  0  0  0  0
 13 30  1  0  0  0  0
 14 31  1  0  0  0  0
 14 32  1  0  0  0  0
 15 33  1  0  0  0  0
 15 34  1  0  0  0  0
 16 35  1  0  0  0  0
 16 36  1  0  0  0  0
 17 37  1  0  0  0  0
 17 38  1  0  0  0  0
 18 39  1  0  0  0  0
 18 40  1  0  0  0  0
 19 41  1  0  0  0  0
 19 42  1  0  0  0  0
 19 43  1  0  0  0  0
M  END
$$$$
