C9H14N2O3
APtclcactv12151716493D 0   0.00000     0.00000
 
 28 28  0  0  0  0  0  0  0  0999 V2000
    0.1566   -2.2269    0.1088 C   0  0  0  0  0  0  0  0  0  0  0  0
   -1.3383   -2.5479    0.0528 C   0  0  0  0  0  0  0  0  0  0  0  0
    0.3559   -0.7117    0.0361 C   0  0  0  0  0  0  0  0  0  0  0  0
   -0.2351   -0.2201   -1.2717 C   0  0  0  0  0  0  0  0  0  0  0  0
   -1.2094    0.7119   -1.2048 N   0  0  0  0  0  0  0  0  0  0  0  0
   -1.6491    1.1944   -0.0369 C   0  0  0  0  0  0  0  0  0  0  0  0
   -1.1905    0.8225    1.1637 N   0  0  0  0  0  0  0  0  0  0  0  0
   -0.2140   -0.0993    1.3016 C   0  0  0  0  0  0  0  0  0  0  0  0
    0.1914   -0.4267    2.3962 O   0  0  0  0  0  0  0  0  0  0  0  0
   -2.5295    2.0310   -0.0689 O   0  0  0  0  0  0  0  0  0  0  0  0
    0.1533   -0.6481   -2.3374 O   0  0  0  0  0  0  0  0  0  0  0  0
    1.8602   -0.4333    0.0131 C   0  0  0  0  0  0  0  0  0  0  0  0
    2.0985    1.0763   -0.0597 C   0  0  0  0  0  0  0  0  0  0  0  0
    3.6028    1.3546   -0.0827 C   0  0  0  0  0  0  0  0  0  0  0  0
    0.5744   -2.6039    1.0423 H   0  0  0  0  0  0  0  0  0  0  0  0
    0.6617   -2.7007   -0.7329 H   0  0  0  0  0  0  0  0  0  0  0  0
   -1.4803   -3.6273    0.1047 H   0  0  0  0  0  0  0  0  0  0  0  0
   -1.8435   -2.0741    0.8945 H   0  0  0  0  0  0  0  0  0  0  0  0
   -1.7561   -2.1709   -0.8807 H   0  0  0  0  0  0  0  0  0  0  0  0
   -1.6026    1.0415   -2.0280 H   0  0  0  0  0  0  0  0  0  0  0  0
   -1.5706    1.2278    1.9587 H   0  0  0  0  0  0  0  0  0  0  0  0
    2.3170   -0.8300    0.9198 H   0  0  0  0  0  0  0  0  0  0  0  0
    2.3054   -0.9138   -0.8582 H   0  0  0  0  0  0  0  0  0  0  0  0
    1.6417    1.4729   -0.9664 H   0  0  0  0  0  0  0  0  0  0  0  0
    1.6534    1.5568    0.8116 H   0  0  0  0  0  0  0  0  0  0  0  0
    3.7725    2.4301   -0.1345 H   0  0  0  0  0  0  0  0  0  0  0  0
    4.0596    0.9580    0.8240 H   0  0  0  0  0  0  0  0  0  0  0  0
    4.0479    0.8741   -0.9540 H   0  0  0  0  0  0  0  0  0  0  0  0
  1  2  1  0  0  0  0
  1  3  1  0  0  0  0
  3  4  1  0  0  0  0
  4  5  1  0  0  0  0
  5  6  1  0  0  0  0
  6  7  1  0  0  0  0
  7  8  1  0  0  0  0
  3  8  1  0  0  0  0
  8  9  2  0  0  0  0
  6 10  2  0  0  0  0
  4 11  2  0  0  0  0
  3 12  1  0  0  0  0
 12 13  1  0  0  0  0
 13 14  1  0  0  0  0
  1 15  1  0  0  0  0
  1 16  1  0  0  0  0
  2 17  1  0  0  0  0
  2 18  1  0  0  0  0
  2 19  1  0  0  0  0
  5 20  1  0  0  0  0
  7 21  1  0  0  0  0
 12 22  1  0  0  0  0
 12 23  1  0  0  0  0
 13 24  1  0  0  0  0
 13 25  1  0  0  0  0
 14 26  1  0  0  0  0
 14 27  1  0  0  0  0
 14 28  1  0  0  0  0
M  END
$$$$
