C6H6INO3S
APtclcactv12211716523D 0   0.00000     0.00000
 
 18 18  0  0  0  0  0  0  0  0999 V2000
   -2.5871    0.4545    0.0052 I   0  0  0  0  0  0  0  0  0  0  0  0
   -0.6853   -0.4242   -0.0068 C   0  0  0  0  0  0  0  0  0  0  0  0
    0.4446    0.3738   -0.0392 C   0  0  0  0  0  0  0  0  0  0  0  0
    1.7014   -0.2022   -0.0467 C   0  0  0  0  0  0  0  0  0  0  0  0
    1.8331   -1.5770   -0.0223 C   0  0  0  0  0  0  0  0  0  0  0  0
    0.7011   -2.3812    0.0102 C   0  0  0  0  0  0  0  0  0  0  0  0
    0.8310   -3.7717    0.0349 N   0  0  0  0  0  0  0  0  0  0  0  0
   -0.5604   -1.7996    0.0235 C   0  0  0  0  0  0  0  0  0  0  0  0
    3.1370    0.8186   -0.0880 S   0  0  0  0  0  0  0  0  0  0  0  0
    4.1802    0.0222   -0.6327 O   0  0  0  0  0  0  0  0  0  0  0  0
    2.7314    2.0588   -0.6508 O   0  0  0  0  0  0  0  0  0  0  0  0
    3.5257    1.1080    1.3547 O   0  0  0  0  0  0  0  0  0  0  0  0
    0.3445    1.4490   -0.0590 H   0  0  0  0  0  0  0  0  0  0  0  0
    2.8152   -2.0261   -0.0290 H   0  0  0  0  0  0  0  0  0  0  0  0
    1.7124   -4.1767    0.0294 H   0  0  0  0  0  0  0  0  0  0  0  0
    0.0398   -4.3324    0.0577 H   0  0  0  0  0  0  0  0  0  0  0  0
   -1.4426   -2.4221    0.0492 H   0  0  0  0  0  0  0  0  0  0  0  0
    4.3098    1.6665    1.4464 H   0  0  0  0  0  0  0  0  0  0  0  0
  1  2  1  0  0  0  0
  2  3  1  0  0  0  0
  3  4  2  0  0  0  0
  4  5  1  0  0  0  0
  5  6  2  0  0  0  0
  6  7  1  0  0  0  0
  6  8  1  0  0  0  0
  2  8  2  0  0  0  0
  4  9  1  0  0  0  0
  9 10  2  0  0  0  0
  9 11  2  0  0  0  0
  9 12  1  0  0  0  0
  3 13  1  0  0  0  0
  5 14  1  0  0  0  0
  7 15  1  0  0  0  0
  7 16  1  0  0  0  0
  8 17  1  0  0  0  0
 12 18  1  0  0  0  0
M  END
$$$$
