C4H3IN2O2
APtclcactv12211716363D 0   0.00000     0.00000
 
 12 12  0  0  0  0  0  0  0  0999 V2000
   -1.7272   -0.1076   -0.0003 I   0  0  0  0  0  0  0  0  0  0  0  0
    0.3671   -0.1623   -0.0002 C   0  0  0  0  0  0  0  0  0  0  0  0
    1.1163    1.0395    0.0005 C   0  0  0  0  0  0  0  0  0  0  0  0
    2.4633    0.9793    0.0005 N   0  0  0  0  0  0  0  0  0  0  0  0
    3.0893   -0.2122   -0.0006 C   0  0  0  0  0  0  0  0  0  0  0  0
    2.3895   -1.3612   -0.0017 N   0  0  0  0  0  0  0  0  0  0  0  0
    1.0208   -1.3439    0.0049 C   0  0  0  0  0  0  0  0  0  0  0  0
    4.3046   -0.2507   -0.0010 O   0  0  0  0  0  0  0  0  0  0  0  0
    0.5492    2.1172    0.0007 O   0  0  0  0  0  0  0  0  0  0  0  0
    2.9833    1.7982    0.0010 H   0  0  0  0  0  0  0  0  0  0  0  0
    2.8592   -2.2099   -0.0031 H   0  0  0  0  0  0  0  0  0  0  0  0
    0.4664   -2.2708    0.0039 H   0  0  0  0  0  0  0  0  0  0  0  0
  1  2  1  0  0  0  0
  2  3  1  0  0  0  0
  3  4  1  0  0  0  0
  4  5  1  0  0  0  0
  5  6  1  0  0  0  0
  6  7  1  0  0  0  0
  2  7  2  0  0  0  0
  5  8  2  0  0  0  0
  3  9  2  0  0  0  0
  4 10  1  0  0  0  0
  6 11  1  0  0  0  0
  7 12  1  0  0  0  0
M  END
$$$$
