C10H14N2O3
APtclcactv12211717263D 0   0.00000     0.00000
 
 29 29  0  0  0  0  0  0  0  0999 V2000
    1.7309   -0.7339    0.8122 C   0  0  0  0  0  0  0  0  0  0  0  0
    1.1859   -2.1070    1.2099 C   0  0  0  0  0  0  0  0  0  0  0  0
    2.8877   -0.9103   -0.1735 C   0  0  0  0  0  0  0  0  0  0  0  0
    0.6191    0.0845    0.1525 C   0  0  0  0  0  0  0  0  0  0  0  0
    0.1468   -0.6664   -1.0780 C   0  0  0  0  0  0  0  0  0  0  0  0
   -1.1582   -1.0062   -1.1390 N   0  0  0  0  0  0  0  0  0  0  0  0
   -2.0164   -0.7001   -0.1593 C   0  0  0  0  0  0  0  0  0  0  0  0
   -1.6934   -0.0426    0.9603 N   0  0  0  0  0  0  0  0  0  0  0  0
   -0.4349    0.3813    1.2024 C   0  0  0  0  0  0  0  0  0  0  0  0
   -0.1569    0.9757    2.2218 O   0  0  0  0  0  0  0  0  0  0  0  0
   -3.1733   -1.0447   -0.2961 O   0  0  0  0  0  0  0  0  0  0  0  0
    0.9129   -0.9506   -1.9737 O   0  0  0  0  0  0  0  0  0  0  0  0
    1.2192    1.4161   -0.3034 C   0  0  0  0  0  0  0  0  0  0  0  0
    0.1496    2.2506   -0.9596 C   0  0  0  0  0  0  0  0  0  0  0  0
   -0.0922    3.4633   -0.5274 C   0  0  0  0  0  0  0  0  0  0  0  0
    2.0871   -0.2129    1.7009 H   0  0  0  0  0  0  0  0  0  0  0  0
    1.9780   -2.6901    1.6799 H   0  0  0  0  0  0  0  0  0  0  0  0
    0.3618   -1.9814    1.9122 H   0  0  0  0  0  0  0  0  0  0  0  0
    0.8298   -2.6280    0.3212 H   0  0  0  0  0  0  0  0  0  0  0  0
    2.5315   -1.4312   -1.0623 H   0  0  0  0  0  0  0  0  0  0  0  0
    3.2760    0.0680   -0.4569 H   0  0  0  0  0  0  0  0  0  0  0  0
    3.6798   -1.4933    0.2964 H   0  0  0  0  0  0  0  0  0  0  0  0
   -1.4835   -1.4868   -1.9162 H   0  0  0  0  0  0  0  0  0  0  0  0
   -2.3845    0.1354    1.6174 H   0  0  0  0  0  0  0  0  0  0  0  0
    1.6178    1.9494    0.5595 H   0  0  0  0  0  0  0  0  0  0  0  0
    2.0217    1.2277   -1.0166 H   0  0  0  0  0  0  0  0  0  0  0  0
   -0.4176    1.8488   -1.7862 H   0  0  0  0  0  0  0  0  0  0  0  0
    0.4750    3.8651    0.2991 H   0  0  0  0  0  0  0  0  0  0  0  0
   -0.8587    4.0614   -0.9977 H   0  0  0  0  0  0  0  0  0  0  0  0
  1  2  1  0  0  0  0
  1  3  1  0  0  0  0
  1  4  1  0  0  0  0
  4  5  1  0  0  0  0
  5  6  1  0  0  0  0
  6  7  1  0  0  0  0
  7  8  1  0  0  0  0
  8  9  1  0  0  0  0
  4  9  1  0  0  0  0
  9 10  2  0  0  0  0
  7 11  2  0  0  0  0
  5 12  2  0  0  0  0
  4 13  1  0  0  0  0
 13 14  1  0  0  0  0
 14 15  2  0  0  0  0
  1 16  1  0  0  0  0
  2 17  1  0  0  0  0
  2 18  1  0  0  0  0
  2 19  1  0  0  0  0
  3 20  1  0  0  0  0
  3 21  1  0  0  0  0
  3 22  1  0  0  0  0
  6 23  1  0  0  0  0
  8 24  1  0  0  0  0
 13 25  1  0  0  0  0
 13 26  1  0  0  0  0
 14 27  1  0  0  0  0
 15 28  1  0  0  0  0
 15 29  1  0  0  0  0
M  END
$$$$
