C12H7N3O2
APtclcactv12111704543D 0   0.00000     0.00000
 
 24 26  0  0  0  0  0  0  0  0999 V2000
    2.3506   -1.5718    0.0220 N   0  3  0  0  0  0  0  0  0  0  0  0
    2.5164   -2.6011   -0.6078 O   0  0  0  0  0  0  0  0  0  0  0  0
    3.2734   -1.0891    0.6536 O   0  5  0  0  0  0  0  0  0  0  0  0
    1.0294   -0.9044    0.0149 C   0  0  0  0  0  0  0  0  0  0  0  0
    0.9664    0.5066   -0.0183 C   0  0  0  0  0  0  0  0  0  0  0  0
    2.1370    1.2832   -0.0441 C   0  0  0  0  0  0  0  0  0  0  0  0
    2.0099    2.6453   -0.0755 C   0  0  0  0  0  0  0  0  0  0  0  0
    0.7455    3.2228   -0.0811 C   0  0  0  0  0  0  0  0  0  0  0  0
   -0.3446    2.4897   -0.0563 N   0  0  0  0  0  0  0  0  0  0  0  0
   -0.2849    1.1618   -0.0257 C   0  0  0  0  0  0  0  0  0  0  0  0
   -1.5039    0.3448    0.0020 C   0  0  0  0  0  0  0  0  0  0  0  0
   -2.7100    0.9044   -0.0020 N   0  0  0  0  0  0  0  0  0  0  0  0
   -3.8024    0.1749    0.0233 C   0  0  0  0  0  0  0  0  0  0  0  0
   -3.7483   -1.2137    0.0557 C   0  0  0  0  0  0  0  0  0  0  0  0
   -2.5362   -1.8487    0.0614 C   0  0  0  0  0  0  0  0  0  0  0  0
   -1.3729   -1.0612    0.0338 C   0  0  0  0  0  0  0  0  0  0  0  0
   -0.0912   -1.6556    0.0349 C   0  0  0  0  0  0  0  0  0  0  0  0
    3.1114    0.8174   -0.0389 H   0  0  0  0  0  0  0  0  0  0  0  0
    2.8903    3.2704   -0.0955 H   0  0  0  0  0  0  0  0  0  0  0  0
    0.6571    4.2989   -0.1059 H   0  0  0  0  0  0  0  0  0  0  0  0
   -4.7646    0.6655    0.0191 H   0  0  0  0  0  0  0  0  0  0  0  0
   -4.6612   -1.7904    0.0768 H   0  0  0  0  0  0  0  0  0  0  0  0
   -2.4753   -2.9266    0.0867 H   0  0  0  0  0  0  0  0  0  0  0  0
   -0.0068   -2.7320    0.0568 H   0  0  0  0  0  0  0  0  0  0  0  0
  1  2  2  0  0  0  0
  1  3  1  0  0  0  0
  1  4  1  0  0  0  0
  4  5  2  0  0  0  0
  5  6  1  0  0  0  0
  6  7  2  0  0  0  0
  7  8  1  0  0  0  0
  8  9  2  0  0  0  0
  9 10  1  0  0  0  0
  5 10  1  0  0  0  0
 10 11  2  0  0  0  0
 11 12  1  0  0  0  0
 12 13  2  0  0  0  0
 13 14  1  0  0  0  0
 14 15  2  0  0  0  0
 15 16  1  0  0  0  0
 11 16  1  0  0  0  0
 16 17  2  0  0  0  0
  4 17  1  0  0  0  0
  6 18  1  0  0  0  0
  7 19  1  0  0  0  0
  8 20  1  0  0  0  0
 13 21  1  0  0  0  0
 14 22  1  0  0  0  0
 15 23  1  0  0  0  0
 17 24  1  0  0  0  0
M  CHG  2   1   1   3  -1
M  END
$$$$
