C7H5NO5
APtclcactv12151716143D 0   0.00000     0.00000
 
 18 18  0  0  0  0  0  0  0  0999 V2000
   -2.7501    0.4036   -0.0052 N   0  3  0  0  0  0  0  0  0  0  0  0
   -3.7226   -0.3297   -0.0042 O   0  0  0  0  0  0  0  0  0  0  0  0
   -2.8989    1.6125   -0.0069 O   0  5  0  0  0  0  0  0  0  0  0  0
   -1.3874   -0.1743    0.0018 C   0  0  0  0  0  0  0  0  0  0  0  0
   -1.2219   -1.5496    0.0095 C   0  0  0  0  0  0  0  0  0  0  0  0
    0.0441   -2.1011    0.0161 C   0  0  0  0  0  0  0  0  0  0  0  0
    1.1607   -1.2788    0.0150 C   0  0  0  0  0  0  0  0  0  0  0  0
    0.9976    0.1140    0.0072 C   0  0  0  0  0  0  0  0  0  0  0  0
    2.1767    0.9985    0.0055 C   0  0  0  0  0  0  0  0  0  0  0  0
    3.2941    0.5213    0.0109 O   0  0  0  0  0  0  0  0  0  0  0  0
    2.0154    2.3363   -0.0020 O   0  0  0  0  0  0  0  0  0  0  0  0
   -0.2893    0.6583   -0.0051 C   0  0  0  0  0  0  0  0  0  0  0  0
    2.4048   -1.8191    0.0220 O   0  0  0  0  0  0  0  0  0  0  0  0
   -2.0883   -2.1944    0.0108 H   0  0  0  0  0  0  0  0  0  0  0  0
    0.1648   -3.1743    0.0225 H   0  0  0  0  0  0  0  0  0  0  0  0
    2.8182    2.8753   -0.0028 H   0  0  0  0  0  0  0  0  0  0  0  0
   -0.4232    1.7299   -0.0115 H   0  0  0  0  0  0  0  0  0  0  0  0
    2.7683   -1.9807   -0.8594 H   0  0  0  0  0  0  0  0  0  0  0  0
  1  2  2  0  0  0  0
  1  3  1  0  0  0  0
  1  4  1  0  0  0  0
  4  5  2  0  0  0  0
  5  6  1  0  0  0  0
  6  7  2  0  0  0  0
  7  8  1  0  0  0  0
  8  9  1  0  0  0  0
  9 10  2  0  0  0  0
  9 11  1  0  0  0  0
  8 12  2  0  0  0  0
  4 12  1  0  0  0  0
  7 13  1  0  0  0  0
  5 14  1  0  0  0  0
  6 15  1  0  0  0  0
 11 16  1  0  0  0  0
 12 17  1  0  0  0  0
 13 18  1  0  0  0  0
M  CHG  2   1   1   3  -1
M  END
$$$$
