C9H18O
APtclcactv12151716513D 0   0.00000     0.00000
 
 28 27  0  0  0  0  0  0  0  0999 V2000
    4.9560   -0.4470   -0.0000 C   0  0  0  0  0  0  0  0  0  0  0  0
    3.7930    0.5472    0.0000 C   0  0  0  0  0  0  0  0  0  0  0  0
    2.4680   -0.2178   -0.0000 C   0  0  0  0  0  0  0  0  0  0  0  0
    1.3051    0.7764    0.0000 C   0  0  0  0  0  0  0  0  0  0  0  0
    0.0000    0.0229    0.0000 C   0  0  0  0  0  0  0  0  0  0  0  0
   -1.3051    0.7764   -0.0000 C   0  0  0  0  0  0  0  0  0  0  0  0
   -2.4680   -0.2178    0.0000 C   0  0  0  0  0  0  0  0  0  0  0  0
   -3.7930    0.5472   -0.0000 C   0  0  0  0  0  0  0  0  0  0  0  0
   -4.9560   -0.4470    0.0000 C   0  0  0  0  0  0  0  0  0  0  0  0
   -0.0000   -1.1847    0.0000 O   0  0  0  0  0  0  0  0  0  0  0  0
    5.8999    0.0980    0.0000 H   0  0  0  0  0  0  0  0  0  0  0  0
    4.8982   -1.0737    0.8900 H   0  0  0  0  0  0  0  0  0  0  0  0
    4.8982   -1.0737   -0.8900 H   0  0  0  0  0  0  0  0  0  0  0  0
    3.8508    1.1739    0.8900 H   0  0  0  0  0  0  0  0  0  0  0  0
    3.8508    1.1739   -0.8900 H   0  0  0  0  0  0  0  0  0  0  0  0
    2.4103   -0.8445   -0.8900 H   0  0  0  0  0  0  0  0  0  0  0  0
    2.4103   -0.8445    0.8900 H   0  0  0  0  0  0  0  0  0  0  0  0
    1.3628    1.4031    0.8900 H   0  0  0  0  0  0  0  0  0  0  0  0
    1.3628    1.4031   -0.8900 H   0  0  0  0  0  0  0  0  0  0  0  0
   -1.3628    1.4031    0.8900 H   0  0  0  0  0  0  0  0  0  0  0  0
   -1.3628    1.4031   -0.8900 H   0  0  0  0  0  0  0  0  0  0  0  0
   -2.4103   -0.8445   -0.8900 H   0  0  0  0  0  0  0  0  0  0  0  0
   -2.4103   -0.8445    0.8900 H   0  0  0  0  0  0  0  0  0  0  0  0
   -3.8508    1.1739    0.8900 H   0  0  0  0  0  0  0  0  0  0  0  0
   -3.8508    1.1739   -0.8900 H   0  0  0  0  0  0  0  0  0  0  0  0
   -4.8982   -1.0737   -0.8900 H   0  0  0  0  0  0  0  0  0  0  0  0
   -4.8982   -1.0737    0.8900 H   0  0  0  0  0  0  0  0  0  0  0  0
   -5.8999    0.0980   -0.0000 H   0  0  0  0  0  0  0  0  0  0  0  0
  1  2  1  0  0  0  0
  2  3  1  0  0  0  0
  3  4  1  0  0  0  0
  4  5  1  0  0  0  0
  5  6  1  0  0  0  0
  6  7  1  0  0  0  0
  7  8  1  0  0  0  0
  8  9  1  0  0  0  0
  5 10  2  0  0  0  0
  1 11  1  0  0  0  0
  1 12  1  0  0  0  0
  1 13  1  0  0  0  0
  2 14  1  0  0  0  0
  2 15  1  0  0  0  0
  3 16  1  0  0  0  0
  3 17  1  0  0  0  0
  4 18  1  0  0  0  0
  4 19  1  0  0  0  0
  6 20  1  0  0  0  0
  6 21  1  0  0  0  0
  7 22  1  0  0  0  0
  7 23  1  0  0  0  0
  8 24  1  0  0  0  0
  8 25  1  0  0  0  0
  9 26  1  0  0  0  0
  9 27  1  0  0  0  0
  9 28  1  0  0  0  0
M  END
$$$$
