C18H30
APtclcactv12211717183D 0   0.00000     0.00000
 
 48 48  0  0  0  0  0  0  0  0999 V2000
    1.4338    0.7277   -0.0681 C   0  0  0  0  0  0  0  0  0  0  0  0
    1.5522    1.5128   -1.1996 C   0  0  0  0  0  0  0  0  0  0  0  0
    1.7806    2.8707   -1.0780 C   0  0  0  0  0  0  0  0  0  0  0  0
    1.8902    3.4436    0.1753 C   0  0  0  0  0  0  0  0  0  0  0  0
    1.7708    2.6587    1.3069 C   0  0  0  0  0  0  0  0  0  0  0  0
    1.5438    1.3005    1.1852 C   0  0  0  0  0  0  0  0  0  0  0  0
    1.1785   -0.7516   -0.2006 C   0  0  0  0  0  0  0  0  0  0  0  0
    2.3225   -1.5273    0.4554 C   0  0  0  0  0  0  0  0  0  0  0  0
    3.6174   -1.2804   -0.3212 C   0  0  0  0  0  0  0  0  0  0  0  0
    4.7330   -2.1536    0.2566 C   0  0  0  0  0  0  0  0  0  0  0  0
    6.0279   -1.9067   -0.5201 C   0  0  0  0  0  0  0  0  0  0  0  0
   -0.1399   -1.1056    0.4904 C   0  0  0  0  0  0  0  0  0  0  0  0
   -1.2997   -0.4382   -0.2515 C   0  0  0  0  0  0  0  0  0  0  0  0
   -2.6259   -0.8932    0.3609 C   0  0  0  0  0  0  0  0  0  0  0  0
   -3.7858   -0.2258   -0.3809 C   0  0  0  0  0  0  0  0  0  0  0  0
   -5.1120   -0.6808    0.2315 C   0  0  0  0  0  0  0  0  0  0  0  0
   -6.2719   -0.0134   -0.5104 C   0  0  0  0  0  0  0  0  0  0  0  0
   -7.5981   -0.4684    0.1020 C   0  0  0  0  0  0  0  0  0  0  0  0
    1.4666    1.0652   -2.1788 H   0  0  0  0  0  0  0  0  0  0  0  0
    1.8738    3.4840   -1.9621 H   0  0  0  0  0  0  0  0  0  0  0  0
    2.0693    4.5044    0.2703 H   0  0  0  0  0  0  0  0  0  0  0  0
    1.8571    3.1061    2.2860 H   0  0  0  0  0  0  0  0  0  0  0  0
    1.4509    0.6872    2.0693 H   0  0  0  0  0  0  0  0  0  0  0  0
    1.1181   -1.0167   -1.2562 H   0  0  0  0  0  0  0  0  0  0  0  0
    2.4464   -1.1907    1.4847 H   0  0  0  0  0  0  0  0  0  0  0  0
    2.0911   -2.5924    0.4468 H   0  0  0  0  0  0  0  0  0  0  0  0
    3.4653   -1.5325   -1.3707 H   0  0  0  0  0  0  0  0  0  0  0  0
    3.8972   -0.2303   -0.2366 H   0  0  0  0  0  0  0  0  0  0  0  0
    4.8851   -1.9015    1.3061 H   0  0  0  0  0  0  0  0  0  0  0  0
    4.4532   -3.2037    0.1720 H   0  0  0  0  0  0  0  0  0  0  0  0
    6.8227   -2.5288   -0.1084 H   0  0  0  0  0  0  0  0  0  0  0  0
    5.8758   -2.1588   -1.5695 H   0  0  0  0  0  0  0  0  0  0  0  0
    6.3077   -0.8566   -0.4355 H   0  0  0  0  0  0  0  0  0  0  0  0
   -0.2764   -2.1869    0.4804 H   0  0  0  0  0  0  0  0  0  0  0  0
   -0.1163   -0.7518    1.5211 H   0  0  0  0  0  0  0  0  0  0  0  0
   -1.2117    0.6447   -0.1642 H   0  0  0  0  0  0  0  0  0  0  0  0
   -1.2691   -0.7216   -1.3036 H   0  0  0  0  0  0  0  0  0  0  0  0
   -2.7139   -1.9761    0.2736 H   0  0  0  0  0  0  0  0  0  0  0  0
   -2.6565   -0.6098    1.4130 H   0  0  0  0  0  0  0  0  0  0  0  0
   -3.6978    0.8571   -0.2936 H   0  0  0  0  0  0  0  0  0  0  0  0
   -3.7552   -0.5092   -1.4330 H   0  0  0  0  0  0  0  0  0  0  0  0
   -5.2000   -1.7637    0.1442 H   0  0  0  0  0  0  0  0  0  0  0  0
   -5.1426   -0.3974    1.2836 H   0  0  0  0  0  0  0  0  0  0  0  0
   -6.1839    1.0695   -0.4231 H   0  0  0  0  0  0  0  0  0  0  0  0
   -6.2413   -0.2968   -1.5624 H   0  0  0  0  0  0  0  0  0  0  0  0
   -8.4244    0.0070   -0.4265 H   0  0  0  0  0  0  0  0  0  0  0  0
   -7.6861   -1.5513    0.0148 H   0  0  0  0  0  0  0  0  0  0  0  0
   -7.6286   -0.1850    1.1541 H   0  0  0  0  0  0  0  0  0  0  0  0
  1  2  2  0  0  0  0
  2  3  1  0  0  0  0
  3  4  2  0  0  0  0
  4  5  1  0  0  0  0
  5  6  2  0  0  0  0
  1  6  1  0  0  0  0
  1  7  1  0  0  0  0
  7  8  1  0  0  0  0
  8  9  1  0  0  0  0
  9 10  1  0  0  0  0
 10 11  1  0  0  0  0
  7 12  1  0  0  0  0
 12 13  1  0  0  0  0
 13 14  1  0  0  0  0
 14 15  1  0  0  0  0
 15 16  1  0  0  0  0
 16 17  1  0  0  0  0
 17 18  1  0  0  0  0
  2 19  1  0  0  0  0
  3 20  1  0  0  0  0
  4 21  1  0  0  0  0
  5 22  1  0  0  0  0
  6 23  1  0  0  0  0
  7 24  1  0  0  0  0
  8 25  1  0  0  0  0
  8 26  1  0  0  0  0
  9 27  1  0  0  0  0
  9 28  1  0  0  0  0
 10 29  1  0  0  0  0
 10 30  1  0  0  0  0
 11 31  1  0  0  0  0
 11 32  1  0  0  0  0
 11 33  1  0  0  0  0
 12 34  1  0  0  0  0
 12 35  1  0  0  0  0
 13 36  1  0  0  0  0
 13 37  1  0  0  0  0
 14 38  1  0  0  0  0
 14 39  1  0  0  0  0
 15 40  1  0  0  0  0
 15 41  1  0  0  0  0
 16 42  1  0  0  0  0
 16 43  1  0  0  0  0
 17 44  1  0  0  0  0
 17 45  1  0  0  0  0
 18 46  1  0  0  0  0
 18 47  1  0  0  0  0
 18 48  1  0  0  0  0
M  END
$$$$
