C11H10BrN3O2S
APtclcactv12211717313D 0   0.00000     0.00000
 
 28 29  0  0  0  0  0  0  0  0999 V2000
   -1.0600   -1.0359    1.5347 S   0  0  0  0  0  0  0  0  0  0  0  0
   -1.2578   -2.4317    1.7127 O   0  0  0  0  0  0  0  0  0  0  0  0
   -2.0054   -0.5756    0.1209 C   0  0  0  0  0  0  0  0  0  0  0  0
   -2.3320   -1.5246   -0.8302 C   0  0  0  0  0  0  0  0  0  0  0  0
   -3.0743   -1.1677   -1.9413 C   0  0  0  0  0  0  0  0  0  0  0  0
   -3.4919    0.1384   -2.1042 C   0  0  0  0  0  0  0  0  0  0  0  0
   -3.1655    1.0944   -1.1504 C   0  0  0  0  0  0  0  0  0  0  0  0
   -2.4243    0.7315   -0.0332 C   0  0  0  0  0  0  0  0  0  0  0  0
   -3.5858    2.4165   -1.3122 N   0  0  0  0  0  0  0  0  0  0  0  0
   -1.3495   -0.0753    2.5411 O   0  0  0  0  0  0  0  0  0  0  0  0
    0.5366   -0.8360    1.1431 N   0  0  0  0  0  0  0  0  0  0  0  0
    1.0355    0.4415    0.8742 C   0  0  0  0  0  0  0  0  0  0  0  0
    2.0246    0.6251   -0.0857 C   0  0  0  0  0  0  0  0  0  0  0  0
    2.4969    1.8290   -0.3419 N   0  0  0  0  0  0  0  0  0  0  0  0
    2.0568    2.8979    0.2936 C   0  0  0  0  0  0  0  0  0  0  0  0
    1.0754    2.7953    1.2611 C   0  0  0  0  0  0  0  0  0  0  0  0
    0.5456    1.5498    1.5592 C   0  0  0  0  0  0  0  0  0  0  0  0
    2.6992   -0.8665   -1.0323 Br  0  0  0  0  0  0  0  0  0  0  0  0
   -2.0063   -2.5467   -0.7054 H   0  0  0  0  0  0  0  0  0  0  0  0
   -3.3274   -1.9113   -2.6825 H   0  0  0  0  0  0  0  0  0  0  0  0
   -4.0712    0.4165   -2.9722 H   0  0  0  0  0  0  0  0  0  0  0  0
   -2.1690    1.4722    0.7101 H   0  0  0  0  0  0  0  0  0  0  0  0
   -4.1062    2.6681   -2.0912 H   0  0  0  0  0  0  0  0  0  0  0  0
   -3.3573    3.0832   -0.6457 H   0  0  0  0  0  0  0  0  0  0  0  0
    1.1255   -1.6056    1.1003 H   0  0  0  0  0  0  0  0  0  0  0  0
    2.4695    3.8669    0.0547 H   0  0  0  0  0  0  0  0  0  0  0  0
    0.7220    3.6764    1.7760 H   0  0  0  0  0  0  0  0  0  0  0  0
   -0.2225    1.4408    2.3105 H   0  0  0  0  0  0  0  0  0  0  0  0
  1  2  2  0  0  0  0
  1  3  1  0  0  0  0
  3  4  2  0  0  0  0
  4  5  1  0  0  0  0
  5  6  2  0  0  0  0
  6  7  1  0  0  0  0
  7  8  2  0  0  0  0
  3  8  1  0  0  0  0
  7  9  1  0  0  0  0
  1 10  2  0  0  0  0
  1 11  1  0  0  0  0
 11 12  1  0  0  0  0
 12 13  1  0  0  0  0
 13 14  2  0  0  0  0
 14 15  1  0  0  0  0
 15 16  2  0  0  0  0
 16 17  1  0  0  0  0
 12 17  2  0  0  0  0
 13 18  1  0  0  0  0
  4 19  1  0  0  0  0
  5 20  1  0  0  0  0
  6 21  1  0  0  0  0
  8 22  1  0  0  0  0
  9 23  1  0  0  0  0
  9 24  1  0  0  0  0
 11 25  1  0  0  0  0
 15 26  1  0  0  0  0
 16 27  1  0  0  0  0
 17 28  1  0  0  0  0
M  END
$$$$
