C5H3F3N2O2
APtclcactv12211716413D 0   0.00000     0.00000
 
 15 15  0  0  0  0  0  0  0  0999 V2000
   -2.2308   -1.5250   -0.0014 F   0  0  0  0  0  0  0  0  0  0  0  0
   -1.7671   -0.2051   -0.0005 C   0  0  0  0  0  0  0  0  0  0  0  0
   -0.2601   -0.2021   -0.0005 C   0  0  0  0  0  0  0  0  0  0  0  0
    0.4548    1.0199    0.0004 C   0  0  0  0  0  0  0  0  0  0  0  0
    1.8030    0.9977    0.0004 N   0  0  0  0  0  0  0  0  0  0  0  0
    2.4621   -0.1759   -0.0005 C   0  0  0  0  0  0  0  0  0  0  0  0
    1.7946   -1.3440   -0.0013 N   0  0  0  0  0  0  0  0  0  0  0  0
    0.4264   -1.3648    0.0043 C   0  0  0  0  0  0  0  0  0  0  0  0
    3.6780   -0.1804   -0.0009 O   0  0  0  0  0  0  0  0  0  0  0  0
   -0.1423    2.0813    0.0008 O   0  0  0  0  0  0  0  0  0  0  0  0
   -2.2347    0.4543   -1.1423 F   0  0  0  0  0  0  0  0  0  0  0  0
   -2.2347    0.4527    1.1423 F   0  0  0  0  0  0  0  0  0  0  0  0
    2.2999    1.8308    0.0007 H   0  0  0  0  0  0  0  0  0  0  0  0
    2.2878   -2.1792   -0.0019 H   0  0  0  0  0  0  0  0  0  0  0  0
   -0.1020   -2.3067    0.0036 H   0  0  0  0  0  0  0  0  0  0  0  0
  1  2  1  0  0  0  0
  2  3  1  0  0  0  0
  3  4  1  0  0  0  0
  4  5  1  0  0  0  0
  5  6  1  0  0  0  0
  6  7  1  0  0  0  0
  7  8  1  0  0  0  0
  3  8  2  0  0  0  0
  6  9  2  0  0  0  0
  4 10  2  0  0  0  0
  2 11  1  0  0  0  0
  2 12  1  0  0  0  0
  5 13  1  0  0  0  0
  7 14  1  0  0  0  0
  8 15  1  0  0  0  0
M  END
$$$$
