C15H12N2O
APtclcactv12211717063D 0   0.00000     0.00000
 
 30 32  0  0  0  0  0  0  0  0999 V2000
   -2.7790    1.6468    0.1472 C   0  0  0  0  0  0  0  0  0  0  0  0
   -3.5689    1.1525   -0.7801 C   0  0  0  0  0  0  0  0  0  0  0  0
   -3.2046   -0.0995   -1.4654 C   0  0  0  0  0  0  0  0  0  0  0  0
   -2.0825   -0.7119   -1.1575 C   0  0  0  0  0  0  0  0  0  0  0  0
   -1.1885   -0.1491   -0.1278 C   0  0  0  0  0  0  0  0  0  0  0  0
   -0.0014   -0.7466    0.1140 N   0  0  0  0  0  0  0  0  0  0  0  0
    1.1519   -0.0961   -0.1499 C   0  0  0  0  0  0  0  0  0  0  0  0
    1.4690    1.0066    0.4878 C   0  0  0  0  0  0  0  0  0  0  0  0
    0.6153    1.5210    1.5649 C   0  0  0  0  0  0  0  0  0  0  0  0
   -0.6794    1.4982    1.5694 C   0  0  0  0  0  0  0  0  0  0  0  0
   -1.5270    0.9517    0.5053 C   0  0  0  0  0  0  0  0  0  0  0  0
    2.6980    1.7389    0.1254 C   0  0  0  0  0  0  0  0  0  0  0  0
    3.4994    1.2664   -0.8037 C   0  0  0  0  0  0  0  0  0  0  0  0
    3.1691    0.0026   -1.4847 C   0  0  0  0  0  0  0  0  0  0  0  0
    2.0635   -0.6386   -1.1766 C   0  0  0  0  0  0  0  0  0  0  0  0
    0.0318   -1.9951    0.6204 C   0  0  0  0  0  0  0  0  0  0  0  0
   -1.0032   -2.5807    0.8584 O   0  0  0  0  0  0  0  0  0  0  0  0
    1.2153   -2.5929    0.8624 N   0  0  0  0  0  0  0  0  0  0  0  0
   -3.0449    2.5672    0.6457 H   0  0  0  0  0  0  0  0  0  0  0  0
   -4.4843    1.6637   -1.0390 H   0  0  0  0  0  0  0  0  0  0  0  0
   -3.8580   -0.5138   -2.2189 H   0  0  0  0  0  0  0  0  0  0  0  0
   -1.8147   -1.6298   -1.6597 H   0  0  0  0  0  0  0  0  0  0  0  0
    1.1069    1.9535    2.4239 H   0  0  0  0  0  0  0  0  0  0  0  0
   -1.1774    1.9183    2.4307 H   0  0  0  0  0  0  0  0  0  0  0  0
    2.9397    2.6656    0.6246 H   0  0  0  0  0  0  0  0  0  0  0  0
    4.3982    1.8041   -1.0674 H   0  0  0  0  0  0  0  0  0  0  0  0
    3.8343   -0.3966   -2.2360 H   0  0  0  0  0  0  0  0  0  0  0  0
    1.8216   -1.5652   -1.6759 H   0  0  0  0  0  0  0  0  0  0  0  0
    2.0431   -2.1246    0.6720 H   0  0  0  0  0  0  0  0  0  0  0  0
    1.2392   -3.4915    1.2268 H   0  0  0  0  0  0  0  0  0  0  0  0
  1  2  2  0  0  0  0
  2  3  1  0  0  0  0
  3  4  2  0  0  0  0
  4  5  1  0  0  0  0
  5  6  1  0  0  0  0
  6  7  1  0  0  0  0
  7  8  2  0  0  0  0
  8  9  1  0  0  0  0
  9 10  2  0  0  0  0
 10 11  1  0  0  0  0
  5 11  2  0  0  0  0
  1 11  1  0  0  0  0
  8 12  1  0  0  0  0
 12 13  2  0  0  0  0
 13 14  1  0  0  0  0
 14 15  2  0  0  0  0
  7 15  1  0  0  0  0
  6 16  1  0  0  0  0
 16 17  2  0  0  0  0
 16 18  1  0  0  0  0
  1 19  1  0  0  0  0
  2 20  1  0  0  0  0
  3 21  1  0  0  0  0
  4 22  1  0  0  0  0
  9 23  1  0  0  0  0
 10 24  1  0  0  0  0
 12 25  1  0  0  0  0
 13 26  1  0  0  0  0
 14 27  1  0  0  0  0
 15 28  1  0  0  0  0
 18 29  1  0  0  0  0
 18 30  1  0  0  0  0
M  END
$$$$
