C6H13NO2
APtclcactv12211716593D 0   0.00000     0.00000
 
 22 21  0  0  0  0  0  0  0  0999 V2000
    4.6544    0.4230   -0.0276 N   0  0  0  0  0  0  0  0  0  0  0  0
    3.4994   -0.4845   -0.0100 C   0  0  0  0  0  0  0  0  0  0  0  0
    2.2071    0.3345   -0.0183 C   0  0  0  0  0  0  0  0  0  0  0  0
    1.0041   -0.6107    0.0001 C   0  0  0  0  0  0  0  0  0  0  0  0
   -0.2882    0.2084   -0.0083 C   0  0  0  0  0  0  0  0  0  0  0  0
   -1.4912   -0.7369    0.0102 C   0  0  0  0  0  0  0  0  0  0  0  0
   -2.7640    0.0699    0.0019 C   0  0  0  0  0  0  0  0  0  0  0  0
   -2.7142    1.2769   -0.0168 O   0  0  0  0  0  0  0  0  0  0  0  0
   -3.9532   -0.5526    0.0153 O   0  0  0  0  0  0  0  0  0  0  0  0
    4.6161    1.0720    0.7440 H   0  0  0  0  0  0  0  0  0  0  0  0
    5.5207   -0.0942   -0.0225 H   0  0  0  0  0  0  0  0  0  0  0  0
    3.5283   -1.1266   -0.8903 H   0  0  0  0  0  0  0  0  0  0  0  0
    3.5341   -1.0993    0.8894 H   0  0  0  0  0  0  0  0  0  0  0  0
    2.1781    0.9766    0.8620 H   0  0  0  0  0  0  0  0  0  0  0  0
    2.1724    0.9493   -0.9177 H   0  0  0  0  0  0  0  0  0  0  0  0
    1.0330   -1.2528   -0.8802 H   0  0  0  0  0  0  0  0  0  0  0  0
    1.0388   -1.2255    0.8995 H   0  0  0  0  0  0  0  0  0  0  0  0
   -0.3171    0.8504    0.8721 H   0  0  0  0  0  0  0  0  0  0  0  0
   -0.3229    0.8231   -0.9077 H   0  0  0  0  0  0  0  0  0  0  0  0
   -1.4623   -1.3789   -0.8702 H   0  0  0  0  0  0  0  0  0  0  0  0
   -1.4565   -1.3516    0.9096 H   0  0  0  0  0  0  0  0  0  0  0  0
   -4.7418    0.0071    0.0093 H   0  0  0  0  0  0  0  0  0  0  0  0
  1  2  1  0  0  0  0
  2  3  1  0  0  0  0
  3  4  1  0  0  0  0
  4  5  1  0  0  0  0
  5  6  1  0  0  0  0
  6  7  1  0  0  0  0
  7  8  2  0  0  0  0
  7  9  1  0  0  0  0
  1 10  1  0  0  0  0
  1 11  1  0  0  0  0
  2 12  1  0  0  0  0
  2 13  1  0  0  0  0
  3 14  1  0  0  0  0
  3 15  1  0  0  0  0
  4 16  1  0  0  0  0
  4 17  1  0  0  0  0
  5 18  1  0  0  0  0
  5 19  1  0  0  0  0
  6 20  1  0  0  0  0
  6 21  1  0  0  0  0
  9 22  1  0  0  0  0
M  END
$$$$
