C6H9N3O2
APtclcactv12211716553D 0   0.00000     0.00000
 
 20 20  0  0  0  0  0  0  0  0999 V2000
    2.4737    1.4733    0.0015 N   0  0  0  0  0  0  0  0  0  0  0  0
    1.2358    0.8830    0.0014 C   0  0  0  0  0  0  0  0  0  0  0  0
    0.1052    1.6517    0.0002 C   0  0  0  0  0  0  0  0  0  0  0  0
   -1.1485    1.0202   -0.0004 C   0  0  0  0  0  0  0  0  0  0  0  0
   -1.2158   -0.3257    0.0001 N   0  0  0  0  0  0  0  0  0  0  0  0
   -0.0930   -1.0669    0.0012 C   0  0  0  0  0  0  0  0  0  0  0  0
    1.1209   -0.4859   -0.0034 N   0  0  0  0  0  0  0  0  0  0  0  0
    2.3266   -1.3180   -0.0021 C   0  0  0  0  0  0  0  0  0  0  0  0
   -0.1762   -2.2799    0.0021 O   0  0  0  0  0  0  0  0  0  0  0  0
   -2.5228   -0.9874   -0.0000 C   0  0  0  0  0  0  0  0  0  0  0  0
   -2.1702    1.6854   -0.0010 O   0  0  0  0  0  0  0  0  0  0  0  0
    2.5498    2.4403    0.0008 H   0  0  0  0  0  0  0  0  0  0  0  0
    3.2730    0.9239    0.0063 H   0  0  0  0  0  0  0  0  0  0  0  0
    0.1756    2.7294    0.0002 H   0  0  0  0  0  0  0  0  0  0  0  0
    2.0419   -2.3702    0.0029 H   0  0  0  0  0  0  0  0  0  0  0  0
    2.9159   -1.1053   -0.8940 H   0  0  0  0  0  0  0  0  0  0  0  0
    2.9191   -1.0977    0.8859 H   0  0  0  0  0  0  0  0  0  0  0  0
   -3.3112   -0.2347   -0.0006 H   0  0  0  0  0  0  0  0  0  0  0  0
   -2.6146   -1.6103   -0.8898 H   0  0  0  0  0  0  0  0  0  0  0  0
   -2.6151   -1.6096    0.8902 H   0  0  0  0  0  0  0  0  0  0  0  0
  1  2  1  0  0  0  0
  2  3  2  0  0  0  0
  3  4  1  0  0  0  0
  4  5  1  0  0  0  0
  5  6  1  0  0  0  0
  6  7  1  0  0  0  0
  2  7  1  0  0  0  0
  7  8  1  0  0  0  0
  6  9  2  0  0  0  0
  5 10  1  0  0  0  0
  4 11  2  0  0  0  0
  1 12  1  0  0  0  0
  1 13  1  0  0  0  0
  3 14  1  0  0  0  0
  8 15  1  0  0  0  0
  8 16  1  0  0  0  0
  8 17  1  0  0  0  0
 10 18  1  0  0  0  0
 10 19  1  0  0  0  0
 10 20  1  0  0  0  0
M  END
$$$$
