C14H14O
APtclcactv12151716113D 0   0.00000     0.00000
 
 29 30  0  0  0  0  0  0  0  0999 V2000
   -0.5814   -0.0231   -1.5979 C   0  0  0  0  0  0  0  0  0  0  0  0
   -1.7248    0.0836   -0.6221 C   0  0  0  0  0  0  0  0  0  0  0  0
   -2.2704    1.3194   -0.3290 C   0  0  0  0  0  0  0  0  0  0  0  0
   -3.3192    1.4172    0.5662 C   0  0  0  0  0  0  0  0  0  0  0  0
   -3.8227    0.2791    1.1679 C   0  0  0  0  0  0  0  0  0  0  0  0
   -3.2778   -0.9568    0.8741 C   0  0  0  0  0  0  0  0  0  0  0  0
   -2.2318   -1.0551   -0.0243 C   0  0  0  0  0  0  0  0  0  0  0  0
    0.7249    0.0968   -0.8562 C   0  0  0  0  0  0  0  0  0  0  0  0
    1.3551    1.3225   -0.7594 C   0  0  0  0  0  0  0  0  0  0  0  0
    2.5535    1.4331   -0.0790 C   0  0  0  0  0  0  0  0  0  0  0  0
    3.1242    0.3179    0.5066 C   0  0  0  0  0  0  0  0  0  0  0  0
    2.4982   -0.9097    0.4127 C   0  0  0  0  0  0  0  0  0  0  0  0
    1.2927   -1.0223   -0.2651 C   0  0  0  0  0  0  0  0  0  0  0  0
    0.6745   -2.2290   -0.3586 O   0  0  0  0  0  0  0  0  0  0  0  0
    4.4306    0.4420    1.2475 C   0  0  0  0  0  0  0  0  0  0  0  0
   -0.6246   -0.9874   -2.1043 H   0  0  0  0  0  0  0  0  0  0  0  0
   -0.6561    0.7774   -2.3340 H   0  0  0  0  0  0  0  0  0  0  0  0
   -1.8770    2.2086   -0.7991 H   0  0  0  0  0  0  0  0  0  0  0  0
   -3.7450    2.3829    0.7957 H   0  0  0  0  0  0  0  0  0  0  0  0
   -4.6417    0.3556    1.8678 H   0  0  0  0  0  0  0  0  0  0  0  0
   -3.6709   -1.8460    1.3445 H   0  0  0  0  0  0  0  0  0  0  0  0
   -1.8060   -2.0207   -0.2539 H   0  0  0  0  0  0  0  0  0  0  0  0
    0.9114    2.1949   -1.2159 H   0  0  0  0  0  0  0  0  0  0  0  0
    3.0449    2.3919   -0.0051 H   0  0  0  0  0  0  0  0  0  0  0  0
    2.9445   -1.7804    0.8699 H   0  0  0  0  0  0  0  0  0  0  0  0
    0.0586   -2.4124    0.3640 H   0  0  0  0  0  0  0  0  0  0  0  0
    4.2339    0.6668    2.2958 H   0  0  0  0  0  0  0  0  0  0  0  0
    4.9806   -0.4962    1.1741 H   0  0  0  0  0  0  0  0  0  0  0  0
    5.0224    1.2453    0.8086 H   0  0  0  0  0  0  0  0  0  0  0  0
  1  2  1  0  0  0  0
  2  3  2  0  0  0  0
  3  4  1  0  0  0  0
  4  5  2  0  0  0  0
  5  6  1  0  0  0  0
  6  7  2  0  0  0  0
  2  7  1  0  0  0  0
  1  8  1  0  0  0  0
  8  9  1  0  0  0  0
  9 10  2  0  0  0  0
 10 11  1  0  0  0  0
 11 12  2  0  0  0  0
 12 13  1  0  0  0  0
  8 13  2  0  0  0  0
 13 14  1  0  0  0  0
 11 15  1  0  0  0  0
  1 16  1  0  0  0  0
  1 17  1  0  0  0  0
  3 18  1  0  0  0  0
  4 19  1  0  0  0  0
  5 20  1  0  0  0  0
  6 21  1  0  0  0  0
  7 22  1  0  0  0  0
  9 23  1  0  0  0  0
 10 24  1  0  0  0  0
 12 25  1  0  0  0  0
 14 26  1  0  0  0  0
 15 27  1  0  0  0  0
 15 28  1  0  0  0  0
 15 29  1  0  0  0  0
M  END
$$$$
