C6H4N4O
APtclcactv12211716493D 0   0.00000     0.00000
 
 15 16  0  0  0  0  0  0  0  0999 V2000
    3.2747    0.6552   -0.0272 O   0  0  0  0  0  0  0  0  0  0  0  0
    1.9965    0.2031   -0.0175 C   0  0  0  0  0  0  0  0  0  0  0  0
    0.9983    1.0642   -0.0159 N   0  0  0  0  0  0  0  0  0  0  0  0
   -0.2586    0.6139   -0.0068 C   0  0  0  0  0  0  0  0  0  0  0  0
   -1.3622    1.4888   -0.0052 C   0  0  0  0  0  0  0  0  0  0  0  0
   -2.5732    0.9703    0.0037 N   0  0  0  0  0  0  0  0  0  0  0  0
   -2.7664   -0.3402    0.0110 C   0  0  0  0  0  0  0  0  0  0  0  0
   -1.7798   -1.2041    0.0104 N   0  0  0  0  0  0  0  0  0  0  0  0
   -0.5101   -0.7814    0.0012 C   0  0  0  0  0  0  0  0  0  0  0  0
    0.5163   -1.6379   -0.0002 N   0  0  0  0  0  0  0  0  0  0  0  0
    1.7463   -1.1793   -0.0151 C   0  0  0  0  0  0  0  0  0  0  0  0
    3.6506    0.7908    0.8534 H   0  0  0  0  0  0  0  0  0  0  0  0
   -1.2191    2.5592   -0.0107 H   0  0  0  0  0  0  0  0  0  0  0  0
   -3.7800   -0.7132    0.0181 H   0  0  0  0  0  0  0  0  0  0  0  0
    2.5748   -1.8721   -0.0165 H   0  0  0  0  0  0  0  0  0  0  0  0
  1  2  1  0  0  0  0
  2  3  1  0  0  0  0
  3  4  2  0  0  0  0
  4  5  1  0  0  0  0
  5  6  2  0  0  0  0
  6  7  1  0  0  0  0
  7  8  2  0  0  0  0
  8  9  1  0  0  0  0
  4  9  1  0  0  0  0
  9 10  2  0  0  0  0
 10 11  1  0  0  0  0
  2 11  2  0  0  0  0
  1 12  1  0  0  0  0
  5 13  1  0  0  0  0
  7 14  1  0  0  0  0
 11 15  1  0  0  0  0
M  END
$$$$
