C9H7NO
APtclcactv12151716423D 0   0.00000     0.00000
 
 18 19  0  0  0  0  0  0  0  0999 V2000
    3.3392    0.6437   -0.0262 O   0  0  0  0  0  0  0  0  0  0  0  0
    2.0569    0.1936   -0.0175 C   0  0  0  0  0  0  0  0  0  0  0  0
    1.0262    1.0905   -0.0163 C   0  0  0  0  0  0  0  0  0  0  0  0
   -0.2973    0.6248   -0.0073 C   0  0  0  0  0  0  0  0  0  0  0  0
   -1.3872    1.5163   -0.0053 C   0  0  0  0  0  0  0  0  0  0  0  0
   -2.6483    0.9924    0.0041 C   0  0  0  0  0  0  0  0  0  0  0  0
   -2.8270   -0.3895    0.0115 C   0  0  0  0  0  0  0  0  0  0  0  0
   -1.8103   -1.2167    0.0101 N   0  0  0  0  0  0  0  0  0  0  0  0
   -0.5503   -0.7698    0.0006 C   0  0  0  0  0  0  0  0  0  0  0  0
    0.5354   -1.6633   -0.0014 C   0  0  0  0  0  0  0  0  0  0  0  0
    1.8074   -1.1819   -0.0155 C   0  0  0  0  0  0  0  0  0  0  0  0
    3.7149    0.7780    0.8546 H   0  0  0  0  0  0  0  0  0  0  0  0
    1.2290    2.1513   -0.0219 H   0  0  0  0  0  0  0  0  0  0  0  0
   -1.2301    2.5849   -0.0108 H   0  0  0  0  0  0  0  0  0  0  0  0
   -3.5062    1.6485    0.0063 H   0  0  0  0  0  0  0  0  0  0  0  0
   -3.8301   -0.7896    0.0190 H   0  0  0  0  0  0  0  0  0  0  0  0
    0.3597   -2.7288    0.0052 H   0  0  0  0  0  0  0  0  0  0  0  0
    2.6374   -1.8730   -0.0173 H   0  0  0  0  0  0  0  0  0  0  0  0
  1  2  1  0  0  0  0
  2  3  1  0  0  0  0
  3  4  2  0  0  0  0
  4  5  1  0  0  0  0
  5  6  2  0  0  0  0
  6  7  1  0  0  0  0
  7  8  2  0  0  0  0
  8  9  1  0  0  0  0
  4  9  1  0  0  0  0
  9 10  2  0  0  0  0
 10 11  1  0  0  0  0
  2 11  2  0  0  0  0
  1 12  1  0  0  0  0
  3 13  1  0  0  0  0
  5 14  1  0  0  0  0
  6 15  1  0  0  0  0
  7 16  1  0  0  0  0
 10 17  1  0  0  0  0
 11 18  1  0  0  0  0
M  END
$$$$
