C6H6INO3S
APtclcactv12211716523D 0   0.00000     0.00000
 
 18 18  0  0  0  0  0  0  0  0999 V2000
   -2.8547    0.1637    0.0139 I   0  0  0  0  0  0  0  0  0  0  0  0
   -0.7601    0.1338   -0.0150 C   0  0  0  0  0  0  0  0  0  0  0  0
   -0.0517    1.3195   -0.0260 C   0  0  0  0  0  0  0  0  0  0  0  0
    1.3311    1.3003   -0.0451 C   0  0  0  0  0  0  0  0  0  0  0  0
    2.0090    0.0953   -0.0528 C   0  0  0  0  0  0  0  0  0  0  0  0
    1.3068   -1.0943   -0.0414 C   0  0  0  0  0  0  0  0  0  0  0  0
   -0.0816   -1.0792   -0.0174 C   0  0  0  0  0  0  0  0  0  0  0  0
   -0.7948   -2.2804   -0.0058 N   0  0  0  0  0  0  0  0  0  0  0  0
    3.7707    0.0769   -0.0777 S   0  0  0  0  0  0  0  0  0  0  0  0
    4.1512   -1.1778   -0.6255 O   0  0  0  0  0  0  0  0  0  0  0  0
    4.1772    1.3215   -0.6299 O   0  0  0  0  0  0  0  0  0  0  0  0
    4.2417    0.0746    1.3696 O   0  0  0  0  0  0  0  0  0  0  0  0
   -0.5781    2.2625   -0.0201 H   0  0  0  0  0  0  0  0  0  0  0  0
    1.8827    2.2288   -0.0544 H   0  0  0  0  0  0  0  0  0  0  0  0
    1.8371   -2.0351   -0.0474 H   0  0  0  0  0  0  0  0  0  0  0  0
   -0.3202   -3.1263   -0.0146 H   0  0  0  0  0  0  0  0  0  0  0  0
   -1.7645   -2.2685    0.0109 H   0  0  0  0  0  0  0  0  0  0  0  0
    5.2034    0.0647    1.4702 H   0  0  0  0  0  0  0  0  0  0  0  0
  1  2  1  0  0  0  0
  2  3  2  0  0  0  0
  3  4  1  0  0  0  0
  4  5  2  0  0  0  0
  5  6  1  0  0  0  0
  6  7  2  0  0  0  0
  2  7  1  0  0  0  0
  7  8  1  0  0  0  0
  5  9  1  0  0  0  0
  9 10  2  0  0  0  0
  9 11  2  0  0  0  0
  9 12  1  0  0  0  0
  3 13  1  0  0  0  0
  4 14  1  0  0  0  0
  6 15  1  0  0  0  0
  8 16  1  0  0  0  0
  8 17  1  0  0  0  0
 12 18  1  0  0  0  0
M  END
$$$$
