C5H6N2O2
APtclcactv12211716423D 0   0.00000     0.00000
 
 15 15  0  0  0  0  0  0  0  0999 V2000
    2.8511    0.3086    0.0011 C   0  0  0  0  0  0  0  0  0  0  0  0
    1.3508    0.1671    0.0010 C   0  0  0  0  0  0  0  0  0  0  0  0
    0.5659    1.2658    0.0004 C   0  0  0  0  0  0  0  0  0  0  0  0
   -0.8409    1.1073   -0.0002 C   0  0  0  0  0  0  0  0  0  0  0  0
   -1.3668   -0.1343   -0.0002 N   0  0  0  0  0  0  0  0  0  0  0  0
   -0.5610   -1.2124    0.0009 C   0  0  0  0  0  0  0  0  0  0  0  0
    0.7775   -1.0753   -0.0042 N   0  0  0  0  0  0  0  0  0  0  0  0
   -1.0494   -2.3258    0.0017 O   0  0  0  0  0  0  0  0  0  0  0  0
   -1.5694    2.0832   -0.0003 O   0  0  0  0  0  0  0  0  0  0  0  0
    3.2127    0.3431    1.0288 H   0  0  0  0  0  0  0  0  0  0  0  0
    3.2965   -0.5436   -0.5123 H   0  0  0  0  0  0  0  0  0  0  0  0
    3.1294    1.2285   -0.5130 H   0  0  0  0  0  0  0  0  0  0  0  0
    1.0054    2.2523    0.0008 H   0  0  0  0  0  0  0  0  0  0  0  0
   -2.3298   -0.2510   -0.0006 H   0  0  0  0  0  0  0  0  0  0  0  0
    1.3413   -1.8646   -0.0034 H   0  0  0  0  0  0  0  0  0  0  0  0
  1  2  1  0  0  0  0
  2  3  2  0  0  0  0
  3  4  1  0  0  0  0
  4  5  1  0  0  0  0
  5  6  1  0  0  0  0
  6  7  1  0  0  0  0
  2  7  1  0  0  0  0
  6  8  2  0  0  0  0
  4  9  2  0  0  0  0
  1 10  1  0  0  0  0
  1 11  1  0  0  0  0
  1 12  1  0  0  0  0
  3 13  1  0  0  0  0
  5 14  1  0  0  0  0
  7 15  1  0  0  0  0
M  END
$$$$
