C19H14
APtclcactv12211717193D 0   0.00000     0.00000
 
 33 36  0  0  0  0  0  0  0  0999 V2000
   -2.1463    3.0928   -0.0001 C   0  0  0  0  0  0  0  0  0  0  0  0
   -1.4945    1.7340   -0.0002 C   0  0  0  0  0  0  0  0  0  0  0  0
   -0.1445    1.6445    0.0001 C   0  0  0  0  0  0  0  0  0  0  0  0
    0.5084    0.3998    0.0005 C   0  0  0  0  0  0  0  0  0  0  0  0
    1.9697    0.3092    0.0003 C   0  0  0  0  0  0  0  0  0  0  0  0
    2.7721    1.4536   -0.0003 C   0  0  0  0  0  0  0  0  0  0  0  0
    4.1309    1.3260   -0.0009 C   0  0  0  0  0  0  0  0  0  0  0  0
    4.7280    0.0697   -0.0009 C   0  0  0  0  0  0  0  0  0  0  0  0
    3.9732   -1.0653   -0.0003 C   0  0  0  0  0  0  0  0  0  0  0  0
    2.5730   -0.9699    0.0003 C   0  0  0  0  0  0  0  0  0  0  0  0
    1.7646   -2.1267    0.0004 C   0  0  0  0  0  0  0  0  0  0  0  0
    0.4148   -2.0379    0.0006 C   0  0  0  0  0  0  0  0  0  0  0  0
   -0.2391   -0.7933    0.0006 C   0  0  0  0  0  0  0  0  0  0  0  0
   -1.7000   -0.7021    0.0002 C   0  0  0  0  0  0  0  0  0  0  0  0
   -2.5037   -1.8458   -0.0002 C   0  0  0  0  0  0  0  0  0  0  0  0
   -3.8623   -1.7169   -0.0010 C   0  0  0  0  0  0  0  0  0  0  0  0
   -4.4588   -0.4602   -0.0018 C   0  0  0  0  0  0  0  0  0  0  0  0
   -3.7031    0.6741   -0.0015 C   0  0  0  0  0  0  0  0  0  0  0  0
   -2.3028    0.5776    0.0052 C   0  0  0  0  0  0  0  0  0  0  0  0
   -2.3032    3.4206   -1.0277 H   0  0  0  0  0  0  0  0  0  0  0  0
   -3.1060    3.0354    0.5135 H   0  0  0  0  0  0  0  0  0  0  0  0
   -1.5011    3.8052    0.5141 H   0  0  0  0  0  0  0  0  0  0  0  0
    0.4446    2.5497   -0.0003 H   0  0  0  0  0  0  0  0  0  0  0  0
    2.3192    2.4340   -0.0006 H   0  0  0  0  0  0  0  0  0  0  0  0
    4.7499    2.2110   -0.0017 H   0  0  0  0  0  0  0  0  0  0  0  0
    5.8053   -0.0076   -0.0017 H   0  0  0  0  0  0  0  0  0  0  0  0
    4.4506   -2.0340   -0.0003 H   0  0  0  0  0  0  0  0  0  0  0  0
    2.2321   -3.1003    0.0001 H   0  0  0  0  0  0  0  0  0  0  0  0
   -0.1738   -2.9434    0.0003 H   0  0  0  0  0  0  0  0  0  0  0  0
   -2.0516   -2.8266   -0.0003 H   0  0  0  0  0  0  0  0  0  0  0  0
   -4.4819   -2.6014   -0.0013 H   0  0  0  0  0  0  0  0  0  0  0  0
   -5.5359   -0.3822   -0.0032 H   0  0  0  0  0  0  0  0  0  0  0  0
   -4.1798    1.6432   -0.0022 H   0  0  0  0  0  0  0  0  0  0  0  0
  1  2  1  0  0  0  0
  2  3  1  0  0  0  0
  3  4  2  0  0  0  0
  4  5  1  0  0  0  0
  5  6  1  0  0  0  0
  6  7  2  0  0  0  0
  7  8  1  0  0  0  0
  8  9  2  0  0  0  0
  9 10  1  0  0  0  0
  5 10  2  0  0  0  0
 10 11  1  0  0  0  0
 11 12  2  0  0  0  0
 12 13  1  0  0  0  0
  4 13  1  0  0  0  0
 13 14  2  0  0  0  0
 14 15  1  0  0  0  0
 15 16  2  0  0  0  0
 16 17  1  0  0  0  0
 17 18  2  0  0  0  0
 18 19  1  0  0  0  0
  2 19  2  0  0  0  0
 14 19  1  0  0  0  0
  1 20  1  0  0  0  0
  1 21  1  0  0  0  0
  1 22  1  0  0  0  0
  3 23  1  0  0  0  0
  6 24  1  0  0  0  0
  7 25  1  0  0  0  0
  8 26  1  0  0  0  0
  9 27  1  0  0  0  0
 11 28  1  0  0  0  0
 12 29  1  0  0  0  0
 15 30  1  0  0  0  0
 16 31  1  0  0  0  0
 17 32  1  0  0  0  0
 18 33  1  0  0  0  0
M  END
$$$$
