C11H14N4O5
APtclcactv12211717343D 0   0.00000     0.00000
 
 34 36  0  0  1  0  0  0  0  0999 V2000
   -1.2189    0.2699    0.5165 C   0  0  1  0  0  0  0  0  0  0  0  0
   -1.7360    1.2417   -0.5673 C   0  0  2  0  0  0  0  0  0  0  0  0
   -3.2571    0.9747   -0.6161 C   0  0  1  0  0  0  0  0  0  0  0  0
   -3.4790   -0.1269    0.4440 C   0  0  1  0  0  0  0  0  0  0  0  0
    0.3224   -1.4158   -0.5556 C   0  0  0  0  0  0  0  0  0  0  0  0
    2.9962    1.6723    1.1574 C   0  0  0  0  0  0  0  0  0  0  0  0
   -4.5479   -1.1140   -0.0293 C   0  0  0  0  0  0  0  0  0  0  0  0
    5.9484   -0.5929   -0.3231 C   0  0  0  0  0  0  0  0  0  0  0  0
   -1.4247    1.5290   -2.5476 H   0  0  0  0  0  0  0  0  0  0  0  0
   -4.9446    2.0444   -0.2856 H   0  0  0  0  0  0  0  0  0  0  0  0
   -5.4353   -2.7591    0.7499 H   0  0  0  0  0  0  0  0  0  0  0  0
    3.6263   -0.2233    0.0028 C   0  0  0  0  0  0  0  0  0  0  0  0
   -1.1354    0.9485   -1.8303 O   0  0  0  0  0  0  0  0  0  0  0  0
   -3.9841    2.1555   -0.2709 O   0  0  0  0  0  0  0  0  0  0  0  0
   -4.7682   -2.0988    0.9824 O   0  0  0  0  0  0  0  0  0  0  0  0
    4.5966   -1.0157   -0.5127 O   0  0  0  0  0  0  0  0  0  0  0  0
   -2.2006   -0.7884    0.5620 O   0  0  0  0  0  0  0  0  0  0  0  0
    1.6021   -1.5888   -0.7167 N   0  0  0  0  0  0  0  0  0  0  0  0
    1.7141    1.3948    1.0500 N   0  0  0  0  0  0  0  0  0  0  0  0
    3.9348    0.8923    0.6520 N   0  0  0  0  0  0  0  0  0  0  0  0
    1.3102    0.2984    0.4178 C   0  0  0  0  0  0  0  0  0  0  0  0
    2.2722   -0.5631   -0.1379 C   0  0  0  0  0  0  0  0  0  0  0  0
    0.0912   -0.2656    0.1382 N   0  0  0  0  0  0  0  0  0  0  0  0
   -1.1582    0.7728    1.4817 H   0  0  0  0  0  0  0  0  0  0  0  0
   -1.5364    2.2743   -0.2810 H   0  0  0  0  0  0  0  0  0  0  0  0
   -3.5513    0.6214   -1.6044 H   0  0  0  0  0  0  0  0  0  0  0  0
   -3.7663    0.3165    1.3975 H   0  0  0  0  0  0  0  0  0  0  0  0
   -0.4438   -2.0830   -0.9218 H   0  0  0  0  0  0  0  0  0  0  0  0
    3.2918    2.5714    1.6775 H   0  0  0  0  0  0  0  0  0  0  0  0
   -5.4771   -0.5781   -0.2232 H   0  0  0  0  0  0  0  0  0  0  0  0
   -4.2122   -1.6019   -0.9443 H   0  0  0  0  0  0  0  0  0  0  0  0
    6.1617   -0.5251    0.7437 H   0  0  0  0  0  0  0  0  0  0  0  0
    6.6229   -1.3151   -0.7832 H   0  0  0  0  0  0  0  0  0  0  0  0
    6.0918    0.3838   -0.7851 H   0  0  0  0  0  0  0  0  0  0  0  0
  1 17  1  0  0  0  0
  4 17  1  0  0  0  0
  2 13  1  0  0  0  0
  3 14  1  0  0  0  0
 12 16  1  0  0  0  0
  8 16  1  0  0  0  0
  7 15  1  0  0  0  0
  1 23  1  0  0  0  0
 21 23  1  0  0  0  0
  5 23  1  0  0  0  0
 18 22  1  0  0  0  0
  5 18  2  0  0  0  0
 19 21  1  0  0  0  0
  6 19  2  0  0  0  0
 12 20  2  0  0  0  0
  6 20  1  0  0  0  0
  1  2  1  0  0  0  0
 21 22  2  0  0  0  0
 12 22  1  0  0  0  0
  2  3  1  0  0  0  0
  3  4  1  0  0  0  0
  4  7  1  0  0  0  0
  9 13  1  0  0  0  0
 10 14  1  0  0  0  0
 11 15  1  0  0  0  0
  1 24  1  0  0  0  0
  2 25  1  0  0  0  0
  3 26  1  0  0  0  0
  4 27  1  0  0  0  0
  5 28  1  0  0  0  0
  6 29  1  0  0  0  0
  7 30  1  0  0  0  0
  7 31  1  0  0  0  0
  8 32  1  0  0  0  0
  8 33  1  0  0  0  0
  8 34  1  0  0  0  0
M  END
$$$$
