C5H4N4S
APtclcactv12211716413D 0   0.00000     0.00000
 
 14 15  0  0  0  0  0  0  0  0999 V2000
    2.4542    0.8340   -0.0343 S   0  0  0  0  0  0  0  0  0  0  0  0
    1.0134   -0.1802   -0.0164 C   0  0  0  0  0  0  0  0  0  0  0  0
   -0.2614    0.3904   -0.0090 C   0  0  0  0  0  0  0  0  0  0  0  0
   -0.7591    1.6760   -0.0117 N   0  0  0  0  0  0  0  0  0  0  0  0
   -2.1079    1.5819    0.0004 C   0  0  0  0  0  0  0  0  0  0  0  0
   -2.4697    0.3291    0.0104 N   0  0  0  0  0  0  0  0  0  0  0  0
   -1.3790   -0.4600    0.0053 C   0  0  0  0  0  0  0  0  0  0  0  0
   -1.1789   -1.7821    0.0115 N   0  0  0  0  0  0  0  0  0  0  0  0
    0.0403   -2.2741    0.0044 C   0  0  0  0  0  0  0  0  0  0  0  0
    1.1153   -1.5077   -0.0152 N   0  0  0  0  0  0  0  0  0  0  0  0
    2.6661    0.9828    1.3517 H   0  0  0  0  0  0  0  0  0  0  0  0
   -0.2391    2.4948   -0.0204 H   0  0  0  0  0  0  0  0  0  0  0  0
   -2.7867    2.4220    0.0020 H   0  0  0  0  0  0  0  0  0  0  0  0
    0.1674   -3.3466    0.0097 H   0  0  0  0  0  0  0  0  0  0  0  0
  1  2  1  0  0  0  0
  2  3  2  0  0  0  0
  3  4  1  0  0  0  0
  4  5  1  0  0  0  0
  5  6  2  0  0  0  0
  6  7  1  0  0  0  0
  3  7  1  0  0  0  0
  7  8  2  0  0  0  0
  8  9  1  0  0  0  0
  9 10  2  0  0  0  0
  2 10  1  0  0  0  0
  1 11  1  0  0  0  0
  4 12  1  0  0  0  0
  5 13  1  0  0  0  0
  9 14  1  0  0  0  0
M  END
$$$$
