C17H28
APtclcactv12211717153D 0   0.00000     0.00000
 
 45 45  0  0  0  0  0  0  0  0999 V2000
    0.0014    0.8303   -0.1135 C   0  0  0  0  0  0  0  0  0  0  0  0
    0.0009    1.6656   -1.2149 C   0  0  0  0  0  0  0  0  0  0  0  0
   -0.0059    3.0371   -1.0422 C   0  0  0  0  0  0  0  0  0  0  0  0
   -0.0128    3.5733    0.2319 C   0  0  0  0  0  0  0  0  0  0  0  0
   -0.0132    2.7380    1.3333 C   0  0  0  0  0  0  0  0  0  0  0  0
   -0.0049    1.3665    1.1606 C   0  0  0  0  0  0  0  0  0  0  0  0
    0.0026   -0.6649   -0.3017 C   0  0  0  0  0  0  0  0  0  0  0  0
    1.2522   -1.2600    0.3503 C   0  0  0  0  0  0  0  0  0  0  0  0
    2.4980   -0.7588   -0.3830 C   0  0  0  0  0  0  0  0  0  0  0  0
    3.7476   -1.3539    0.2691 C   0  0  0  0  0  0  0  0  0  0  0  0
    4.9934   -0.8527   -0.4642 C   0  0  0  0  0  0  0  0  0  0  0  0
    6.2430   -1.4478    0.1879 C   0  0  0  0  0  0  0  0  0  0  0  0
   -1.2463   -1.2620    0.3500 C   0  0  0  0  0  0  0  0  0  0  0  0
   -2.4926   -0.7626   -0.3836 C   0  0  0  0  0  0  0  0  0  0  0  0
   -3.7415   -1.3597    0.2681 C   0  0  0  0  0  0  0  0  0  0  0  0
   -4.9878   -0.8603   -0.4655 C   0  0  0  0  0  0  0  0  0  0  0  0
   -6.2367   -1.4574    0.1863 C   0  0  0  0  0  0  0  0  0  0  0  0
    0.0063    1.2467   -2.2103 H   0  0  0  0  0  0  0  0  0  0  0  0
   -0.0056    3.6897   -1.9028 H   0  0  0  0  0  0  0  0  0  0  0  0
   -0.0174    4.6448    0.3668 H   0  0  0  0  0  0  0  0  0  0  0  0
   -0.0178    3.1569    2.3287 H   0  0  0  0  0  0  0  0  0  0  0  0
   -0.0049    0.7139    2.0212 H   0  0  0  0  0  0  0  0  0  0  0  0
    0.0029   -0.8970   -1.3667 H   0  0  0  0  0  0  0  0  0  0  0  0
    1.2978   -0.9535    1.3953 H   0  0  0  0  0  0  0  0  0  0  0  0
    1.2094   -2.3476    0.2922 H   0  0  0  0  0  0  0  0  0  0  0  0
    2.4525   -1.0653   -1.4280 H   0  0  0  0  0  0  0  0  0  0  0  0
    2.5408    0.3288   -0.3248 H   0  0  0  0  0  0  0  0  0  0  0  0
    3.7932   -1.0474    1.3141 H   0  0  0  0  0  0  0  0  0  0  0  0
    3.7048   -2.4415    0.2110 H   0  0  0  0  0  0  0  0  0  0  0  0
    4.9479   -1.1592   -1.5092 H   0  0  0  0  0  0  0  0  0  0  0  0
    5.0362    0.2349   -0.4061 H   0  0  0  0  0  0  0  0  0  0  0  0
    6.2886   -1.1413    1.2329 H   0  0  0  0  0  0  0  0  0  0  0  0
    6.2002   -2.5354    0.1298 H   0  0  0  0  0  0  0  0  0  0  0  0
    7.1305   -1.0907   -0.3345 H   0  0  0  0  0  0  0  0  0  0  0  0
   -1.2018   -2.3495    0.2919 H   0  0  0  0  0  0  0  0  0  0  0  0
   -1.2925   -0.9555    1.3950 H   0  0  0  0  0  0  0  0  0  0  0  0
   -2.5371    0.3249   -0.3255 H   0  0  0  0  0  0  0  0  0  0  0  0
   -2.4463   -1.0690   -1.4286 H   0  0  0  0  0  0  0  0  0  0  0  0
   -3.6970   -2.4472    0.2100 H   0  0  0  0  0  0  0  0  0  0  0  0
   -3.7878   -1.0532    1.3131 H   0  0  0  0  0  0  0  0  0  0  0  0
   -5.0323    0.2272   -0.4074 H   0  0  0  0  0  0  0  0  0  0  0  0
   -4.9416   -1.1668   -1.5105 H   0  0  0  0  0  0  0  0  0  0  0  0
   -6.1922   -2.5449    0.1282 H   0  0  0  0  0  0  0  0  0  0  0  0
   -6.2830   -1.1510    1.2313 H   0  0  0  0  0  0  0  0  0  0  0  0
   -7.1246   -1.1016   -0.3364 H   0  0  0  0  0  0  0  0  0  0  0  0
  1  2  2  0  0  0  0
  2  3  1  0  0  0  0
  3  4  2  0  0  0  0
  4  5  1  0  0  0  0
  5  6  2  0  0  0  0
  1  6  1  0  0  0  0
  1  7  1  0  0  0  0
  7  8  1  0  0  0  0
  8  9  1  0  0  0  0
  9 10  1  0  0  0  0
 10 11  1  0  0  0  0
 11 12  1  0  0  0  0
  7 13  1  0  0  0  0
 13 14  1  0  0  0  0
 14 15  1  0  0  0  0
 15 16  1  0  0  0  0
 16 17  1  0  0  0  0
  2 18  1  0  0  0  0
  3 19  1  0  0  0  0
  4 20  1  0  0  0  0
  5 21  1  0  0  0  0
  6 22  1  0  0  0  0
  7 23  1  0  0  0  0
  8 24  1  0  0  0  0
  8 25  1  0  0  0  0
  9 26  1  0  0  0  0
  9 27  1  0  0  0  0
 10 28  1  0  0  0  0
 10 29  1  0  0  0  0
 11 30  1  0  0  0  0
 11 31  1  0  0  0  0
 12 32  1  0  0  0  0
 12 33  1  0  0  0  0
 12 34  1  0  0  0  0
 13 35  1  0  0  0  0
 13 36  1  0  0  0  0
 14 37  1  0  0  0  0
 14 38  1  0  0  0  0
 15 39  1  0  0  0  0
 15 40  1  0  0  0  0
 16 41  1  0  0  0  0
 16 42  1  0  0  0  0
 17 43  1  0  0  0  0
 17 44  1  0  0  0  0
 17 45  1  0  0  0  0
M  END
$$$$
