C18H30
APtclcactv12211717183D 0   0.00000     0.00000
 
 48 48  0  0  0  0  0  0  0  0999 V2000
    0.4625    0.8657   -0.0964 C   0  0  0  0  0  0  0  0  0  0  0  0
    0.4712    1.6899   -1.2061 C   0  0  0  0  0  0  0  0  0  0  0  0
    0.5172    3.0624   -1.0474 C   0  0  0  0  0  0  0  0  0  0  0  0
    0.5540    3.6106    0.2211 C   0  0  0  0  0  0  0  0  0  0  0  0
    0.5444    2.7864    1.3308 C   0  0  0  0  0  0  0  0  0  0  0  0
    0.4998    1.4139    1.1720 C   0  0  0  0  0  0  0  0  0  0  0  0
    0.4060   -0.6303   -0.2694 C   0  0  0  0  0  0  0  0  0  0  0  0
    1.6455   -1.2642    0.3653 C   0  0  0  0  0  0  0  0  0  0  0  0
    2.8944   -0.8155   -0.3962 C   0  0  0  0  0  0  0  0  0  0  0  0
    4.1339   -1.4494    0.2385 C   0  0  0  0  0  0  0  0  0  0  0  0
    5.3828   -1.0008   -0.5230 C   0  0  0  0  0  0  0  0  0  0  0  0
    6.6223   -1.6347    0.1116 C   0  0  0  0  0  0  0  0  0  0  0  0
   -0.8510   -1.1753    0.4116 C   0  0  0  0  0  0  0  0  0  0  0  0
   -2.0922   -0.6381   -0.3036 C   0  0  0  0  0  0  0  0  0  0  0  0
   -3.3492   -1.1831    0.3774 C   0  0  0  0  0  0  0  0  0  0  0  0
   -4.5904   -0.6458   -0.3379 C   0  0  0  0  0  0  0  0  0  0  0  0
   -5.8474   -1.1909    0.3431 C   0  0  0  0  0  0  0  0  0  0  0  0
   -7.0886   -0.6536   -0.3721 C   0  0  0  0  0  0  0  0  0  0  0  0
    0.4425    1.2616   -2.1971 H   0  0  0  0  0  0  0  0  0  0  0  0
    0.5248    3.7063   -1.9144 H   0  0  0  0  0  0  0  0  0  0  0  0
    0.5907    4.6828    0.3451 H   0  0  0  0  0  0  0  0  0  0  0  0
    0.5738    3.2147    2.3218 H   0  0  0  0  0  0  0  0  0  0  0  0
    0.4926    0.7700    2.0390 H   0  0  0  0  0  0  0  0  0  0  0  0
    0.3777   -0.8724   -1.3318 H   0  0  0  0  0  0  0  0  0  0  0  0
    1.7220   -0.9496    1.4061 H   0  0  0  0  0  0  0  0  0  0  0  0
    1.5623   -2.3500    0.3191 H   0  0  0  0  0  0  0  0  0  0  0  0
    2.8180   -1.1301   -1.4370 H   0  0  0  0  0  0  0  0  0  0  0  0
    2.9776    0.2703   -0.3500 H   0  0  0  0  0  0  0  0  0  0  0  0
    4.2104   -1.1348    1.2793 H   0  0  0  0  0  0  0  0  0  0  0  0
    4.0507   -2.5353    0.1923 H   0  0  0  0  0  0  0  0  0  0  0  0
    5.3063   -1.3154   -1.5638 H   0  0  0  0  0  0  0  0  0  0  0  0
    5.4660    0.0851   -0.4768 H   0  0  0  0  0  0  0  0  0  0  0  0
    6.6987   -1.3201    1.1524 H   0  0  0  0  0  0  0  0  0  0  0  0
    6.5391   -2.7205    0.0654 H   0  0  0  0  0  0  0  0  0  0  0  0
    7.5120   -1.3151   -0.4309 H   0  0  0  0  0  0  0  0  0  0  0  0
   -0.8469   -2.2643    0.3638 H   0  0  0  0  0  0  0  0  0  0  0  0
   -0.8662   -0.8575    1.4541 H   0  0  0  0  0  0  0  0  0  0  0  0
   -2.0962    0.4509   -0.2558 H   0  0  0  0  0  0  0  0  0  0  0  0
   -2.0769   -0.9559   -1.3461 H   0  0  0  0  0  0  0  0  0  0  0  0
   -3.3451   -2.2721    0.3296 H   0  0  0  0  0  0  0  0  0  0  0  0
   -3.3645   -0.8652    1.4199 H   0  0  0  0  0  0  0  0  0  0  0  0
   -4.5945    0.4431   -0.2901 H   0  0  0  0  0  0  0  0  0  0  0  0
   -4.5751   -0.9637   -1.3804 H   0  0  0  0  0  0  0  0  0  0  0  0
   -5.8434   -2.2798    0.2953 H   0  0  0  0  0  0  0  0  0  0  0  0
   -5.8627   -0.8730    1.3856 H   0  0  0  0  0  0  0  0  0  0  0  0
   -7.0927    0.4353   -0.3243 H   0  0  0  0  0  0  0  0  0  0  0  0
   -7.0734   -0.9715   -1.4146 H   0  0  0  0  0  0  0  0  0  0  0  0
   -7.9842   -1.0419    0.1130 H   0  0  0  0  0  0  0  0  0  0  0  0
  1  2  2  0  0  0  0
  2  3  1  0  0  0  0
  3  4  2  0  0  0  0
  4  5  1  0  0  0  0
  5  6  2  0  0  0  0
  1  6  1  0  0  0  0
  1  7  1  0  0  0  0
  7  8  1  0  0  0  0
  8  9  1  0  0  0  0
  9 10  1  0  0  0  0
 10 11  1  0  0  0  0
 11 12  1  0  0  0  0
  7 13  1  0  0  0  0
 13 14  1  0  0  0  0
 14 15  1  0  0  0  0
 15 16  1  0  0  0  0
 16 17  1  0  0  0  0
 17 18  1  0  0  0  0
  2 19  1  0  0  0  0
  3 20  1  0  0  0  0
  4 21  1  0  0  0  0
  5 22  1  0  0  0  0
  6 23  1  0  0  0  0
  7 24  1  0  0  0  0
  8 25  1  0  0  0  0
  8 26  1  0  0  0  0
  9 27  1  0  0  0  0
  9 28  1  0  0  0  0
 10 29  1  0  0  0  0
 10 30  1  0  0  0  0
 11 31  1  0  0  0  0
 11 32  1  0  0  0  0
 12 33  1  0  0  0  0
 12 34  1  0  0  0  0
 12 35  1  0  0  0  0
 13 36  1  0  0  0  0
 13 37  1  0  0  0  0
 14 38  1  0  0  0  0
 14 39  1  0  0  0  0
 15 40  1  0  0  0  0
 15 41  1  0  0  0  0
 16 42  1  0  0  0  0
 16 43  1  0  0  0  0
 17 44  1  0  0  0  0
 17 45  1  0  0  0  0
 18 46  1  0  0  0  0
 18 47  1  0  0  0  0
 18 48  1  0  0  0  0
M  END
$$$$
