C6H5N5O
APtclcactv12211716523D 0   0.00000     0.00000
 
 17 18  0  0  0  0  0  0  0  0999 V2000
    2.8312   -1.4088    0.0082 N   0  0  0  0  0  0  0  0  0  0  0  0
    1.6328   -0.7175    0.0082 C   0  0  0  0  0  0  0  0  0  0  0  0
    1.6383    0.6978    0.0168 C   0  0  0  0  0  0  0  0  0  0  0  0
    0.5067    1.3682    0.0164 N   0  0  0  0  0  0  0  0  0  0  0  0
   -0.6554    0.7048    0.0078 C   0  0  0  0  0  0  0  0  0  0  0  0
   -1.8900    1.3762    0.0064 C   0  0  0  0  0  0  0  0  0  0  0  0
   -2.9961    0.6582   -0.0027 N   0  0  0  0  0  0  0  0  0  0  0  0
   -2.9630   -0.6651   -0.0105 C   0  0  0  0  0  0  0  0  0  0  0  0
   -1.8419   -1.3472   -0.0098 N   0  0  0  0  0  0  0  0  0  0  0  0
   -0.6639   -0.7126   -0.0009 C   0  0  0  0  0  0  0  0  0  0  0  0
    0.4934   -1.3825   -0.0055 N   0  0  0  0  0  0  0  0  0  0  0  0
    2.8175    1.3668    0.0261 O   0  0  0  0  0  0  0  0  0  0  0  0
    3.6711   -0.9234    0.0141 H   0  0  0  0  0  0  0  0  0  0  0  0
    2.8316   -2.3788    0.0063 H   0  0  0  0  0  0  0  0  0  0  0  0
   -1.9319    2.4554    0.0131 H   0  0  0  0  0  0  0  0  0  0  0  0
   -3.8977   -1.2061   -0.0175 H   0  0  0  0  0  0  0  0  0  0  0  0
    3.1635    1.5663   -0.8546 H   0  0  0  0  0  0  0  0  0  0  0  0
  1  2  1  0  0  0  0
  2  3  2  0  0  0  0
  3  4  1  0  0  0  0
  4  5  2  0  0  0  0
  5  6  1  0  0  0  0
  6  7  2  0  0  0  0
  7  8  1  0  0  0  0
  8  9  2  0  0  0  0
  9 10  1  0  0  0  0
  5 10  1  0  0  0  0
 10 11  2  0  0  0  0
  2 11  1  0  0  0  0
  3 12  1  0  0  0  0
  1 13  1  0  0  0  0
  1 14  1  0  0  0  0
  6 15  1  0  0  0  0
  8 16  1  0  0  0  0
 12 17  1  0  0  0  0
M  END
$$$$
