C10H9NO4S
APtclcactv12211717213D 0   0.00000     0.00000
 
 25 26  0  0  0  0  0  0  0  0999 V2000
    0.3692   -1.0358    0.0498 C   0  0  0  0  0  0  0  0  0  0  0  0
   -1.9193   -1.9062    0.0277 C   0  0  0  0  0  0  0  0  0  0  0  0
   -2.9082    0.7136   -0.0309 C   0  0  0  0  0  0  0  0  0  0  0  0
   -3.2584   -1.6740    0.0028 C   0  0  0  0  0  0  0  0  0  0  0  0
    0.7278    1.3347    0.0175 C   0  0  0  0  0  0  0  0  0  0  0  0
   -1.2242    3.2430    0.8376 H   0  0  0  0  0  0  0  0  0  0  0  0
   -5.4964    0.7437   -0.0712 H   0  0  0  0  0  0  0  0  0  0  0  0
   -5.7478   -0.9173   -0.0482 H   0  0  0  0  0  0  0  0  0  0  0  0
   -0.6158    1.5809   -0.0086 C   0  0  0  0  0  0  0  0  0  0  0  0
    1.2154    0.0309    0.0461 C   0  0  0  0  0  0  0  0  0  0  0  0
   -3.7615   -0.3679   -0.0265 C   0  0  0  0  0  0  0  0  0  0  0  0
    3.5379    0.9376    0.6132 O   0  0  0  0  0  0  0  0  0  0  0  0
    3.1485   -1.5311    0.6472 O   0  0  0  0  0  0  0  0  0  0  0  0
   -1.0764    2.8585   -0.0373 O   0  0  0  0  0  0  0  0  0  0  0  0
    3.4240   -0.3369   -1.3666 O   0  0  0  0  0  0  0  0  0  0  0  0
    4.3742   -0.4881   -1.4631 H   0  0  0  0  0  0  0  0  0  0  0  0
   -5.1426   -0.1592   -0.0512 N   0  0  0  0  0  0  0  0  0  0  0  0
    2.9557   -0.2432    0.0785 S   0  0  0  0  0  0  0  0  0  0  0  0
   -1.0203   -0.8252    0.0241 C   0  0  0  0  0  0  0  0  0  0  0  0
   -1.5212    0.5000   -0.0055 C   0  0  0  0  0  0  0  0  0  0  0  0
    0.7645   -2.0407    0.0680 H   0  0  0  0  0  0  0  0  0  0  0  0
   -1.5465   -2.9195    0.0505 H   0  0  0  0  0  0  0  0  0  0  0  0
   -3.3036    1.7184   -0.0539 H   0  0  0  0  0  0  0  0  0  0  0  0
   -3.9438   -2.5087    0.0058 H   0  0  0  0  0  0  0  0  0  0  0  0
    1.4211    2.1627    0.0152 H   0  0  0  0  0  0  0  0  0  0  0  0
 19 20  1  0  0  0  0
  1 19  2  0  0  0  0
  2 19  1  0  0  0  0
  9 20  2  0  0  0  0
  3 20  1  0  0  0  0
  1 10  1  0  0  0  0
  2  4  2  0  0  0  0
  5  9  1  0  0  0  0
  9 14  1  0  0  0  0
  3 11  2  0  0  0  0
 10 18  1  0  0  0  0
 11 17  1  0  0  0  0
 15 18  1  0  0  0  0
 12 18  2  0  0  0  0
 13 18  2  0  0  0  0
  5 10  2  0  0  0  0
  4 11  1  0  0  0  0
  1 21  1  0  0  0  0
  2 22  1  0  0  0  0
  3 23  1  0  0  0  0
  4 24  1  0  0  0  0
  5 25  1  0  0  0  0
  6 14  1  0  0  0  0
  7 17  1  0  0  0  0
  8 17  1  0  0  0  0
 15 16  1  0  0  0  0
M  END
$$$$
