C15H13NO
APtclcactv12211717063D 0   0.00000     0.00000
 
 30 32  0  0  0  0  0  0  0  0999 V2000
    0.6358   -1.0791   -0.7462 C   0  0  0  0  0  0  0  0  0  0  0  0
    1.7827   -0.3525   -0.1618 C   0  0  0  0  0  0  0  0  0  0  0  0
    3.0304   -0.3918   -0.7877 C   0  0  0  0  0  0  0  0  0  0  0  0
    4.0963    0.2889   -0.2372 C   0  0  0  0  0  0  0  0  0  0  0  0
    3.9313    1.0096    0.9326 C   0  0  0  0  0  0  0  0  0  0  0  0
    2.6978    1.0524    1.5583 C   0  0  0  0  0  0  0  0  0  0  0  0
    1.6220    0.3810    1.0156 C   0  0  0  0  0  0  0  0  0  0  0  0
    0.7989   -1.7920   -1.7178 O   0  0  0  0  0  0  0  0  0  0  0  0
   -0.7036   -0.9444   -0.1479 C   0  0  0  0  0  0  0  0  0  0  0  0
   -1.2290   -1.9767    0.6328 C   0  0  0  0  0  0  0  0  0  0  0  0
   -2.4798   -1.8499    1.1942 C   0  0  0  0  0  0  0  0  0  0  0  0
   -3.2207   -0.6954    0.9894 C   0  0  0  0  0  0  0  0  0  0  0  0
   -2.7158    0.3314    0.2221 C   0  0  0  0  0  0  0  0  0  0  0  0
   -3.2916    1.6826   -0.1542 C   0  0  0  0  0  0  0  0  0  0  0  0
   -2.0490    2.4536   -0.6564 C   0  0  0  0  0  0  0  0  0  0  0  0
   -1.1519    1.3648   -1.1003 N   0  0  0  0  0  0  0  0  0  0  0  0
   -1.4561    0.2288   -0.3569 C   0  0  0  0  0  0  0  0  0  0  0  0
    3.1606   -0.9541   -1.7005 H   0  0  0  0  0  0  0  0  0  0  0  0
    5.0619    0.2591   -0.7200 H   0  0  0  0  0  0  0  0  0  0  0  0
    4.7692    1.5408    1.3594 H   0  0  0  0  0  0  0  0  0  0  0  0
    2.5760    1.6164    2.4712 H   0  0  0  0  0  0  0  0  0  0  0  0
    0.6598    0.4155    1.5047 H   0  0  0  0  0  0  0  0  0  0  0  0
   -0.6534   -2.8759    0.7960 H   0  0  0  0  0  0  0  0  0  0  0  0
   -2.8848   -2.6509    1.7949 H   0  0  0  0  0  0  0  0  0  0  0  0
   -4.2003   -0.6009    1.4342 H   0  0  0  0  0  0  0  0  0  0  0  0
   -4.0302    1.5802   -0.9492 H   0  0  0  0  0  0  0  0  0  0  0  0
   -3.7254    2.1740    0.7168 H   0  0  0  0  0  0  0  0  0  0  0  0
   -2.3090    3.1050   -1.4907 H   0  0  0  0  0  0  0  0  0  0  0  0
   -1.5940    3.0236    0.1537 H   0  0  0  0  0  0  0  0  0  0  0  0
   -1.2541    1.1926   -2.0893 H   0  0  0  0  0  0  0  0  0  0  0  0
  1  2  1  0  0  0  0
  2  3  2  0  0  0  0
  3  4  1  0  0  0  0
  4  5  2  0  0  0  0
  5  6  1  0  0  0  0
  6  7  2  0  0  0  0
  2  7  1  0  0  0  0
  1  8  2  0  0  0  0
  1  9  1  0  0  0  0
  9 10  1  0  0  0  0
 10 11  2  0  0  0  0
 11 12  1  0  0  0  0
 12 13  2  0  0  0  0
 13 14  1  0  0  0  0
 14 15  1  0  0  0  0
 15 16  1  0  0  0  0
 16 17  1  0  0  0  0
  9 17  2  0  0  0  0
 13 17  1  0  0  0  0
  3 18  1  0  0  0  0
  4 19  1  0  0  0  0
  5 20  1  0  0  0  0
  6 21  1  0  0  0  0
  7 22  1  0  0  0  0
 10 23  1  0  0  0  0
 11 24  1  0  0  0  0
 12 25  1  0  0  0  0
 14 26  1  0  0  0  0
 14 27  1  0  0  0  0
 15 28  1  0  0  0  0
 15 29  1  0  0  0  0
 16 30  1  0  0  0  0
M  END
$$$$
