C9H7NO
APtclcactv12151716423D 0   0.00000     0.00000
 
 18 19  0  0  0  0  0  0  0  0999 V2000
    3.3344   -0.6484   -0.0262 O   0  0  0  0  0  0  0  0  0  0  0  0
    2.0558   -0.1901   -0.0174 C   0  0  0  0  0  0  0  0  0  0  0  0
    1.8158    1.1877   -0.0112 C   0  0  0  0  0  0  0  0  0  0  0  0
    0.5455    1.6735   -0.0027 C   0  0  0  0  0  0  0  0  0  0  0  0
   -0.5423    0.7851   -0.0002 C   0  0  0  0  0  0  0  0  0  0  0  0
   -1.8687    1.2552    0.0089 C   0  0  0  0  0  0  0  0  0  0  0  0
   -2.8792    0.3358    0.0114 C   0  0  0  0  0  0  0  0  0  0  0  0
   -2.5816   -1.0247    0.0050 C   0  0  0  0  0  0  0  0  0  0  0  0
   -1.3449   -1.4602   -0.0035 N   0  0  0  0  0  0  0  0  0  0  0  0
   -0.3097   -0.6133   -0.0064 C   0  0  0  0  0  0  0  0  0  0  0  0
    1.0121   -1.0870   -0.0203 C   0  0  0  0  0  0  0  0  0  0  0  0
    3.7096   -0.7843    0.8546 H   0  0  0  0  0  0  0  0  0  0  0  0
    2.6494    1.8743   -0.0127 H   0  0  0  0  0  0  0  0  0  0  0  0
    0.3737    2.7398    0.0024 H   0  0  0  0  0  0  0  0  0  0  0  0
   -2.0819    2.3139    0.0142 H   0  0  0  0  0  0  0  0  0  0  0  0
   -3.9082    0.6638    0.0187 H   0  0  0  0  0  0  0  0  0  0  0  0
   -3.3908   -1.7400    0.0075 H   0  0  0  0  0  0  0  0  0  0  0  0
    1.2085   -2.1489   -0.0286 H   0  0  0  0  0  0  0  0  0  0  0  0
  1  2  1  0  0  0  0
  2  3  2  0  0  0  0
  3  4  1  0  0  0  0
  4  5  2  0  0  0  0
  5  6  1  0  0  0  0
  6  7  2  0  0  0  0
  7  8  1  0  0  0  0
  8  9  2  0  0  0  0
  9 10  1  0  0  0  0
  5 10  1  0  0  0  0
 10 11  2  0  0  0  0
  2 11  1  0  0  0  0
  1 12  1  0  0  0  0
  3 13  1  0  0  0  0
  4 14  1  0  0  0  0
  6 15  1  0  0  0  0
  7 16  1  0  0  0  0
  8 17  1  0  0  0  0
 11 18  1  0  0  0  0
M  END
$$$$
