C7H6N4
APtclcactv12151716153D 0   0.00000     0.00000
 
 17 18  0  0  0  0  0  0  0  0999 V2000
    3.4401   -0.6968    0.0010 C   0  0  0  0  0  0  0  0  0  0  0  0
    2.0182   -0.1974    0.0010 C   0  0  0  0  0  0  0  0  0  0  0  0
    1.7695    1.1776   -0.0000 C   0  0  0  0  0  0  0  0  0  0  0  0
    0.5381    1.6364   -0.0001 N   0  0  0  0  0  0  0  0  0  0  0  0
   -0.4835    0.7787    0.0003 C   0  0  0  0  0  0  0  0  0  0  0  0
   -1.8235    1.2146   -0.0003 C   0  0  0  0  0  0  0  0  0  0  0  0
   -2.7774    0.3066   -0.0002 N   0  0  0  0  0  0  0  0  0  0  0  0
   -2.5021   -0.9896    0.0004 C   0  0  0  0  0  0  0  0  0  0  0  0
   -1.2767   -1.4561    0.0010 N   0  0  0  0  0  0  0  0  0  0  0  0
   -0.2334   -0.6177    0.0009 C   0  0  0  0  0  0  0  0  0  0  0  0
    1.0267   -1.0605   -0.0036 N   0  0  0  0  0  0  0  0  0  0  0  0
    3.7831   -0.8164    1.0287 H   0  0  0  0  0  0  0  0  0  0  0  0
    3.4878   -1.6573   -0.5121 H   0  0  0  0  0  0  0  0  0  0  0  0
    4.0777    0.0221   -0.5136 H   0  0  0  0  0  0  0  0  0  0  0  0
    2.5979    1.8706   -0.0004 H   0  0  0  0  0  0  0  0  0  0  0  0
   -2.0624    2.2678   -0.0005 H   0  0  0  0  0  0  0  0  0  0  0  0
   -3.3224   -1.6920    0.0009 H   0  0  0  0  0  0  0  0  0  0  0  0
  1  2  1  0  0  0  0
  2  3  2  0  0  0  0
  3  4  1  0  0  0  0
  4  5  2  0  0  0  0
  5  6  1  0  0  0  0
  6  7  2  0  0  0  0
  7  8  1  0  0  0  0
  8  9  2  0  0  0  0
  9 10  1  0  0  0  0
  5 10  1  0  0  0  0
 10 11  2  0  0  0  0
  2 11  1  0  0  0  0
  1 12  1  0  0  0  0
  1 13  1  0  0  0  0
  1 14  1  0  0  0  0
  3 15  1  0  0  0  0
  6 16  1  0  0  0  0
  8 17  1  0  0  0  0
M  END
$$$$
