C7H7ClN4O2
APtclcactv12151716163D 0   0.00000     0.00000
 
 21 22  0  0  0  0  0  0  0  0999 V2000
   -4.0135   -0.0145   -0.0005 Cl  0  0  0  0  0  0  0  0  0  0  0  0
   -2.2775   -0.0307   -0.0010 C   0  0  0  0  0  0  0  0  0  0  0  0
   -1.5129    1.0334   -0.0004 N   0  0  0  0  0  0  0  0  0  0  0  0
   -0.2285    0.6683   -0.0003 C   0  0  0  0  0  0  0  0  0  0  0  0
    0.9681    1.3664    0.0002 N   0  0  0  0  0  0  0  0  0  0  0  0
    2.1383    0.7004    0.0002 C   0  0  0  0  0  0  0  0  0  0  0  0
    2.1853   -0.6430   -0.0003 N   0  0  0  0  0  0  0  0  0  0  0  0
    3.4848   -1.3194   -0.0003 C   0  0  0  0  0  0  0  0  0  0  0  0
    1.0537   -1.3778   -0.0004 C   0  0  0  0  0  0  0  0  0  0  0  0
   -0.1943   -0.7208   -0.0008 C   0  0  0  0  0  0  0  0  0  0  0  0
   -1.5114   -1.1403    0.0038 N   0  0  0  0  0  0  0  0  0  0  0  0
    1.1093   -2.5946   -0.0009 O   0  0  0  0  0  0  0  0  0  0  0  0
    3.1786    1.3299    0.0003 O   0  0  0  0  0  0  0  0  0  0  0  0
    0.9603    2.8314    0.0003 C   0  0  0  0  0  0  0  0  0  0  0  0
    3.8069   -1.4876    1.0274 H   0  0  0  0  0  0  0  0  0  0  0  0
    3.3963   -2.2764   -0.5145 H   0  0  0  0  0  0  0  0  0  0  0  0
    4.2181   -0.6975   -0.5137 H   0  0  0  0  0  0  0  0  0  0  0  0
   -1.8248   -2.0583    0.0087 H   0  0  0  0  0  0  0  0  0  0  0  0
    0.9580    3.1947    1.0280 H   0  0  0  0  0  0  0  0  0  0  0  0
    1.8486    3.1995   -0.5131 H   0  0  0  0  0  0  0  0  0  0  0  0
    0.0686    3.1900   -0.5138 H   0  0  0  0  0  0  0  0  0  0  0  0
  1  2  1  0  0  0  0
  2  3  2  0  0  0  0
  3  4  1  0  0  0  0
  4  5  1  0  0  0  0
  5  6  1  0  0  0  0
  6  7  1  0  0  0  0
  7  8  1  0  0  0  0
  7  9  1  0  0  0  0
  9 10  1  0  0  0  0
  4 10  2  0  0  0  0
 10 11  1  0  0  0  0
  2 11  1  0  0  0  0
  9 12  2  0  0  0  0
  6 13  2  0  0  0  0
  5 14  1  0  0  0  0
  8 15  1  0  0  0  0
  8 16  1  0  0  0  0
  8 17  1  0  0  0  0
 11 18  1  0  0  0  0
 14 19  1  0  0  0  0
 14 20  1  0  0  0  0
 14 21  1  0  0  0  0
M  END
$$$$
