C9H7NO
APtclcactv12151716423D 0   0.00000     0.00000
 
 18 19  0  0  0  0  0  0  0  0999 V2000
    1.7628    2.0180    0.0294 O   0  0  0  0  0  0  0  0  0  0  0  0
    1.3495    0.7241    0.0169 C   0  0  0  0  0  0  0  0  0  0  0  0
    2.2653   -0.2894    0.0122 C   0  0  0  0  0  0  0  0  0  0  0  0
    1.8608   -1.6213   -0.0002 C   0  0  0  0  0  0  0  0  0  0  0  0
    0.5395   -1.9518   -0.0085 C   0  0  0  0  0  0  0  0  0  0  0  0
   -0.4319   -0.9380   -0.0040 C   0  0  0  0  0  0  0  0  0  0  0  0
   -1.8069   -1.2404   -0.0119 C   0  0  0  0  0  0  0  0  0  0  0  0
   -2.6948   -0.2027   -0.0065 C   0  0  0  0  0  0  0  0  0  0  0  0
   -2.2292    1.1106    0.0065 C   0  0  0  0  0  0  0  0  0  0  0  0
   -0.9481    1.3879    0.0134 N   0  0  0  0  0  0  0  0  0  0  0  0
   -0.0277    0.4196    0.0145 C   0  0  0  0  0  0  0  0  0  0  0  0
    1.8862    2.4000   -0.8503 H   0  0  0  0  0  0  0  0  0  0  0  0
    3.3193   -0.0538    0.0178 H   0  0  0  0  0  0  0  0  0  0  0  0
    2.6053   -2.4037   -0.0036 H   0  0  0  0  0  0  0  0  0  0  0  0
    0.2402   -2.9895   -0.0188 H   0  0  0  0  0  0  0  0  0  0  0  0
   -2.1500   -2.2644   -0.0223 H   0  0  0  0  0  0  0  0  0  0  0  0
   -3.7566   -0.3998   -0.0126 H   0  0  0  0  0  0  0  0  0  0  0  0
   -2.9428    1.9213    0.0107 H   0  0  0  0  0  0  0  0  0  0  0  0
  1  2  1  0  0  0  0
  2  3  1  0  0  0  0
  3  4  2  0  0  0  0
  4  5  1  0  0  0  0
  5  6  2  0  0  0  0
  6  7  1  0  0  0  0
  7  8  2  0  0  0  0
  8  9  1  0  0  0  0
  9 10  2  0  0  0  0
 10 11  1  0  0  0  0
  2 11  2  0  0  0  0
  6 11  1  0  0  0  0
  1 12  1  0  0  0  0
  3 13  1  0  0  0  0
  4 14  1  0  0  0  0
  5 15  1  0  0  0  0
  7 16  1  0  0  0  0
  8 17  1  0  0  0  0
  9 18  1  0  0  0  0
M  END
$$$$
