C5H4N4O
APtclcactv12211716413D 0   0.00000     0.00000
 
 14 15  0  0  0  0  0  0  0  0999 V2000
    3.2334    0.0655   -0.0270 O   0  0  0  0  0  0  0  0  0  0  0  0
    1.8822    0.0330   -0.0180 C   0  0  0  0  0  0  0  0  0  0  0  0
    1.1041    1.0879   -0.0145 N   0  0  0  0  0  0  0  0  0  0  0  0
   -0.1858    0.7046   -0.0053 C   0  0  0  0  0  0  0  0  0  0  0  0
   -1.3517    1.3525    0.0007 N   0  0  0  0  0  0  0  0  0  0  0  0
   -2.4847    0.6834    0.0087 C   0  0  0  0  0  0  0  0  0  0  0  0
   -2.5275   -0.6358    0.0110 N   0  0  0  0  0  0  0  0  0  0  0  0
   -1.4169   -1.3597    0.0054 C   0  0  0  0  0  0  0  0  0  0  0  0
   -0.1978   -0.7057   -0.0030 C   0  0  0  0  0  0  0  0  0  0  0  0
    1.1270   -1.1011   -0.0171 N   0  0  0  0  0  0  0  0  0  0  0  0
    3.6324    0.0760    0.8538 H   0  0  0  0  0  0  0  0  0  0  0  0
   -3.4138    1.2340    0.0138 H   0  0  0  0  0  0  0  0  0  0  0  0
   -1.4629   -2.4387    0.0077 H   0  0  0  0  0  0  0  0  0  0  0  0
    1.4565   -2.0134   -0.0240 H   0  0  0  0  0  0  0  0  0  0  0  0
  1  2  1  0  0  0  0
  2  3  2  0  0  0  0
  3  4  1  0  0  0  0
  4  5  2  0  0  0  0
  5  6  1  0  0  0  0
  6  7  2  0  0  0  0
  7  8  1  0  0  0  0
  8  9  2  0  0  0  0
  4  9  1  0  0  0  0
  9 10  1  0  0  0  0
  2 10  1  0  0  0  0
  1 11  1  0  0  0  0
  6 12  1  0  0  0  0
  8 13  1  0  0  0  0
 10 14  1  0  0  0  0
M  END
$$$$
