C15H10O2
APtclcactv12211717053D 0   0.00000     0.00000
 
 27 29  0  0  0  0  0  0  0  0999 V2000
   -2.4512   -0.7281    0.0262 C   0  0  0  0  0  0  0  0  0  0  0  0
   -3.6068   -0.0103    0.0136 C   0  0  0  0  0  0  0  0  0  0  0  0
   -3.6019    1.3829   -0.0107 C   0  0  0  0  0  0  0  0  0  0  0  0
   -2.4427    2.0915   -0.0236 C   0  0  0  0  0  0  0  0  0  0  0  0
   -1.2085    1.4072   -0.0116 C   0  0  0  0  0  0  0  0  0  0  0  0
    0.0000    2.1051   -0.0238 C   0  0  0  0  0  0  0  0  0  0  0  0
    1.2086    1.4071   -0.0112 C   0  0  0  0  0  0  0  0  0  0  0  0
    2.4427    2.0914   -0.0236 C   0  0  0  0  0  0  0  0  0  0  0  0
    3.6019    1.3828   -0.0112 C   0  0  0  0  0  0  0  0  0  0  0  0
    3.6068   -0.0104    0.0136 C   0  0  0  0  0  0  0  0  0  0  0  0
    2.4513   -0.7282    0.0266 C   0  0  0  0  0  0  0  0  0  0  0  0
    1.2168   -0.0570    0.0149 C   0  0  0  0  0  0  0  0  0  0  0  0
   -0.0000   -0.7703    0.0274 C   0  0  0  0  0  0  0  0  0  0  0  0
   -1.2167   -0.0569    0.0144 C   0  0  0  0  0  0  0  0  0  0  0  0
   -0.0000   -2.2368    0.0525 C   0  0  0  0  0  0  0  0  0  0  0  0
    0.0002   -2.8267    1.1159 O   0  0  0  0  0  0  0  0  0  0  0  0
   -0.0003   -2.9311   -1.1040 O   0  0  0  0  0  0  0  0  0  0  0  0
   -2.4825   -1.8074    0.0495 H   0  0  0  0  0  0  0  0  0  0  0  0
   -4.5516   -0.5334    0.0224 H   0  0  0  0  0  0  0  0  0  0  0  0
   -4.5429    1.9127   -0.0200 H   0  0  0  0  0  0  0  0  0  0  0  0
   -2.4655    3.1711   -0.0431 H   0  0  0  0  0  0  0  0  0  0  0  0
    0.0001    3.1849   -0.0434 H   0  0  0  0  0  0  0  0  0  0  0  0
    2.4656    3.1710   -0.0432 H   0  0  0  0  0  0  0  0  0  0  0  0
    4.5430    1.9126   -0.0212 H   0  0  0  0  0  0  0  0  0  0  0  0
    4.5517   -0.5335    0.0224 H   0  0  0  0  0  0  0  0  0  0  0  0
    2.4825   -1.8076    0.0455 H   0  0  0  0  0  0  0  0  0  0  0  0
   -0.0004   -3.8958   -1.0369 H   0  0  0  0  0  0  0  0  0  0  0  0
  1  2  2  0  0  0  0
  2  3  1  0  0  0  0
  3  4  2  0  0  0  0
  4  5  1  0  0  0  0
  5  6  2  0  0  0  0
  6  7  1  0  0  0  0
  7  8  2  0  0  0  0
  8  9  1  0  0  0  0
  9 10  2  0  0  0  0
 10 11  1  0  0  0  0
 11 12  2  0  0  0  0
  7 12  1  0  0  0  0
 12 13  1  0  0  0  0
 13 14  2  0  0  0  0
  1 14  1  0  0  0  0
  5 14  1  0  0  0  0
 13 15  1  0  0  0  0
 15 16  2  0  0  0  0
 15 17  1  0  0  0  0
  1 18  1  0  0  0  0
  2 19  1  0  0  0  0
  3 20  1  0  0  0  0
  4 21  1  0  0  0  0
  6 22  1  0  0  0  0
  8 23  1  0  0  0  0
  9 24  1  0  0  0  0
 10 25  1  0  0  0  0
 11 26  1  0  0  0  0
 17 27  1  0  0  0  0
M  END
$$$$
