C15H12
APtclcactv12211717063D 0   0.00000     0.00000
 
 27 29  0  0  0  0  0  0  0  0999 V2000
    0.0000    2.7190    0.0001 C   0  0  0  0  0  0  0  0  0  0  0  0
    0.0000    1.2120   -0.0002 C   0  0  0  0  0  0  0  0  0  0  0  0
    1.2044    0.5107   -0.0000 C   0  0  0  0  0  0  0  0  0  0  0  0
    2.4423    1.1888   -0.0006 C   0  0  0  0  0  0  0  0  0  0  0  0
    3.5970    0.4750   -0.0008 C   0  0  0  0  0  0  0  0  0  0  0  0
    3.5970   -0.9201   -0.0004 C   0  0  0  0  0  0  0  0  0  0  0  0
    2.4423   -1.6340    0.0002 C   0  0  0  0  0  0  0  0  0  0  0  0
    1.2044   -0.9559    0.0003 C   0  0  0  0  0  0  0  0  0  0  0  0
   -0.0000   -1.6572    0.0004 C   0  0  0  0  0  0  0  0  0  0  0  0
   -1.2044   -0.9559    0.0001 C   0  0  0  0  0  0  0  0  0  0  0  0
   -2.4423   -1.6340   -0.0004 C   0  0  0  0  0  0  0  0  0  0  0  0
   -3.5970   -0.9201   -0.0010 C   0  0  0  0  0  0  0  0  0  0  0  0
   -3.5970    0.4750   -0.0011 C   0  0  0  0  0  0  0  0  0  0  0  0
   -2.4422    1.1889   -0.0011 C   0  0  0  0  0  0  0  0  0  0  0  0
   -1.2043    0.5108    0.0052 C   0  0  0  0  0  0  0  0  0  0  0  0
    0.0003    3.0826   -1.0275 H   0  0  0  0  0  0  0  0  0  0  0  0
   -0.8901    3.0823    0.5138 H   0  0  0  0  0  0  0  0  0  0  0  0
    0.8899    3.0823    0.5142 H   0  0  0  0  0  0  0  0  0  0  0  0
    2.4706    2.2685   -0.0013 H   0  0  0  0  0  0  0  0  0  0  0  0
    4.5403    1.0009   -0.0017 H   0  0  0  0  0  0  0  0  0  0  0  0
    4.5403   -1.4460   -0.0009 H   0  0  0  0  0  0  0  0  0  0  0  0
    2.4706   -2.7136    0.0002 H   0  0  0  0  0  0  0  0  0  0  0  0
   -0.0000   -2.7372    0.0002 H   0  0  0  0  0  0  0  0  0  0  0  0
   -2.4707   -2.7136   -0.0007 H   0  0  0  0  0  0  0  0  0  0  0  0
   -4.5403   -1.4460   -0.0018 H   0  0  0  0  0  0  0  0  0  0  0  0
   -4.5403    1.0009   -0.0015 H   0  0  0  0  0  0  0  0  0  0  0  0
   -2.4706    2.2685   -0.0014 H   0  0  0  0  0  0  0  0  0  0  0  0
  1  2  1  0  0  0  0
  2  3  1  0  0  0  0
  3  4  2  0  0  0  0
  4  5  1  0  0  0  0
  5  6  2  0  0  0  0
  6  7  1  0  0  0  0
  7  8  2  0  0  0  0
  3  8  1  0  0  0  0
  8  9  1  0  0  0  0
  9 10  2  0  0  0  0
 10 11  1  0  0  0  0
 11 12  2  0  0  0  0
 12 13  1  0  0  0  0
 13 14  2  0  0  0  0
 14 15  1  0  0  0  0
  2 15  2  0  0  0  0
 10 15  1  0  0  0  0
  1 16  1  0  0  0  0
  1 17  1  0  0  0  0
  1 18  1  0  0  0  0
  4 19  1  0  0  0  0
  5 20  1  0  0  0  0
  6 21  1  0  0  0  0
  7 22  1  0  0  0  0
  9 23  1  0  0  0  0
 11 24  1  0  0  0  0
 12 25  1  0  0  0  0
 13 26  1  0  0  0  0
 14 27  1  0  0  0  0
M  END
$$$$
