C14H18N6O
APtclcactv12211717033D 0   0.00000     0.00000
 
 39 42  0  0  1  0  0  0  0  0999 V2000
    2.2997   -0.6727   -0.2184 C   0  0  2  0  0  0  0  0  0  0  0  0
    4.5869   -0.1953    0.3005 C   0  0  1  0  0  0  0  0  0  0  0  0
    0.7945    1.3541   -0.2254 C   0  0  0  0  0  0  0  0  0  0  0  0
    5.4152    0.9698    0.8458 C   0  0  0  0  0  0  0  0  0  0  0  0
   -3.2445    2.0311   -0.0050 H   0  0  0  0  0  0  0  0  0  0  0  0
   -1.6791   -4.1546    0.2086 H   0  0  0  0  0  0  0  0  0  0  0  0
   -3.2837   -3.6625    0.2851 H   0  0  0  0  0  0  0  0  0  0  0  0
    7.3207    1.6152    0.6139 H   0  0  0  0  0  0  0  0  0  0  0  0
   -2.5297    0.1118    0.0462 C   0  0  0  0  0  0  0  0  0  0  0  0
   -1.9398   -2.1228    0.1227 C   0  0  0  0  0  0  0  0  0  0  0  0
    3.1895   -0.2190    0.9622 C   0  0  0  0  0  0  0  0  0  0  0  0
   -5.8719    1.7730    0.7487 C   0  0  0  0  0  0  0  0  0  0  0  0
   -5.9041    1.4582   -0.7483 C   0  0  0  0  0  0  0  0  0  0  0  0
    6.7385    0.9053    0.3103 O   0  0  0  0  0  0  0  0  0  0  0  0
   -4.9150    0.7315    0.1652 C   0  0  0  0  0  0  0  0  0  0  0  0
   -2.3410   -3.4455    0.2147 N   0  0  0  0  0  0  0  0  0  0  0  0
    3.0639   -0.2616   -1.4554 C   0  0  0  0  0  0  0  0  0  0  0  0
    4.3113   -0.0013   -1.1724 C   0  0  0  0  0  0  0  0  0  0  0  0
   -0.4793    1.6095   -0.1582 N   0  0  0  0  0  0  0  0  0  0  0  0
   -0.6483   -1.8522    0.0276 N   0  0  0  0  0  0  0  0  0  0  0  0
   -2.8643   -1.1707    0.1320 N   0  0  0  0  0  0  0  0  0  0  0  0
   -3.5005    1.0976    0.0579 N   0  0  0  0  0  0  0  0  0  0  0  0
   -1.1680    0.4461   -0.0562 C   0  0  0  0  0  0  0  0  0  0  0  0
   -0.2255   -0.5950   -0.0629 C   0  0  0  0  0  0  0  0  0  0  0  0
    1.0027    0.0068   -0.1704 N   0  0  0  0  0  0  0  0  0  0  0  0
    1.5720    2.0983   -0.3159 H   0  0  0  0  0  0  0  0  0  0  0  0
    2.1623   -1.7538   -0.1966 H   0  0  0  0  0  0  0  0  0  0  0  0
   -5.1136   -0.3164    0.3902 H   0  0  0  0  0  0  0  0  0  0  0  0
    2.9036    0.7743    1.3084 H   0  0  0  0  0  0  0  0  0  0  0  0
    3.1550   -0.9409    1.7781 H   0  0  0  0  0  0  0  0  0  0  0  0
    2.6345   -0.1926   -2.4439 H   0  0  0  0  0  0  0  0  0  0  0  0
   -5.4491    2.7306    1.0526 H   0  0  0  0  0  0  0  0  0  0  0  0
   -6.7004    1.4104    1.3571 H   0  0  0  0  0  0  0  0  0  0  0  0
   -6.7536    0.8884   -1.1246 H   0  0  0  0  0  0  0  0  0  0  0  0
   -5.5024    2.2087   -1.4291 H   0  0  0  0  0  0  0  0  0  0  0  0
    5.1036   -1.1399    0.4707 H   0  0  0  0  0  0  0  0  0  0  0  0
    5.0493    0.3120   -1.8960 H   0  0  0  0  0  0  0  0  0  0  0  0
    4.9513    1.9125    0.5555 H   0  0  0  0  0  0  0  0  0  0  0  0
    5.4597    0.9065    1.9330 H   0  0  0  0  0  0  0  0  0  0  0  0
 23 24  2  0  0  0  0
  9 23  1  0  0  0  0
 19 23  1  0  0  0  0
 24 25  1  0  0  0  0
 20 24  1  0  0  0  0
  9 22  1  0  0  0  0
  9 21  2  0  0  0  0
  3 19  2  0  0  0  0
  1 25  1  0  0  0  0
 10 20  2  0  0  0  0
 15 22  1  0  0  0  0
  1 11  1  0  0  0  0
  1 17  1  0  0  0  0
 10 16  1  0  0  0  0
 12 15  1  0  0  0  0
 13 15  1  0  0  0  0
  2 11  1  0  0  0  0
 17 18  2  0  0  0  0
  2  4  1  0  0  0  0
  4 14  1  0  0  0  0
  3 25  1  0  0  0  0
 10 21  1  0  0  0  0
 12 13  1  0  0  0  0
  2 18  1  0  0  0  0
  5 22  1  0  0  0  0
  3 26  1  0  0  0  0
  1 27  1  0  0  0  0
 15 28  1  0  0  0  0
 11 29  1  0  0  0  0
 11 30  1  0  0  0  0
 17 31  1  0  0  0  0
  6 16  1  0  0  0  0
  7 16  1  0  0  0  0
 12 32  1  0  0  0  0
 12 33  1  0  0  0  0
 13 34  1  0  0  0  0
 13 35  1  0  0  0  0
  2 36  1  0  0  0  0
 18 37  1  0  0  0  0
  4 38  1  0  0  0  0
  4 39  1  0  0  0  0
  8 14  1  0  0  0  0
M  END
$$$$
