C16H13Cl2NO4
APtclcactv12211717103D 0   0.00000     0.00000
 
 36 37  0  0  0  0  0  0  0  0999 V2000
    2.6206    1.7843    1.3333 C   0  0  0  0  0  0  0  0  0  0  0  0
    1.2427    2.9566   -0.7639 C   0  0  0  0  0  0  0  0  0  0  0  0
    2.9780    3.0414    0.8877 C   0  0  0  0  0  0  0  0  0  0  0  0
    2.2899    3.6272   -0.1594 C   0  0  0  0  0  0  0  0  0  0  0  0
    2.6525   -2.3713   -1.3863 C   0  0  0  0  0  0  0  0  0  0  0  0
    0.8369   -3.5088   -0.3111 C   0  0  0  0  0  0  0  0  0  0  0  0
    1.8517   -3.4904   -1.2503 C   0  0  0  0  0  0  0  0  0  0  0  0
   -0.2608    0.9681   -0.9836 C   0  0  0  0  0  0  0  0  0  0  0  0
   -3.8637    0.9327    0.1832 C   0  0  0  0  0  0  0  0  0  0  0  0
    0.8018   -0.2741    2.0512 H   0  0  0  0  0  0  0  0  0  0  0  0
    1.5687    1.1075    0.7281 C   0  0  0  0  0  0  0  0  0  0  0  0
    0.8801    1.6987   -0.3236 C   0  0  0  0  0  0  0  0  0  0  0  0
    1.4222   -1.2811    0.3618 C   0  0  0  0  0  0  0  0  0  0  0  0
    2.4411   -1.2663   -0.5833 C   0  0  0  0  0  0  0  0  0  0  0  0
    0.6195   -2.4076    0.4955 C   0  0  0  0  0  0  0  0  0  0  0  0
   -1.5089    1.9063    0.7809 O   0  0  0  0  0  0  0  0  0  0  0  0
   -4.9171   -0.4359   -1.4196 O   0  0  0  0  0  0  0  0  0  0  0  0
   -6.2613    0.3444    0.1513 O   0  0  0  0  0  0  0  0  0  0  0  0
   -1.5292    1.2112   -0.2071 C   0  0  0  0  0  0  0  0  0  0  0  0
   -5.0523    0.2302   -0.4206 C   0  0  0  0  0  0  0  0  0  0  0  0
   -2.6816    0.6554   -0.6131 O   0  0  0  0  0  0  0  0  0  0  0  0
   -6.9934   -0.1244   -0.2722 H   0  0  0  0  0  0  0  0  0  0  0  0
    3.4474    0.1378   -0.7546 Cl  0  0  0  0  0  0  0  0  0  0  0  0
   -0.6551   -2.4316    1.6739 Cl  0  0  0  0  0  0  0  0  0  0  0  0
    1.2050   -0.1648    1.1758 N   0  0  0  0  0  0  0  0  0  0  0  0
    3.1609    1.3258    2.1483 H   0  0  0  0  0  0  0  0  0  0  0  0
   -0.3838    1.3323   -2.0036 H   0  0  0  0  0  0  0  0  0  0  0  0
   -0.0455   -0.1003   -1.0027 H   0  0  0  0  0  0  0  0  0  0  0  0
    0.7078    3.4167   -1.5815 H   0  0  0  0  0  0  0  0  0  0  0  0
    3.7955    3.5680    1.3576 H   0  0  0  0  0  0  0  0  0  0  0  0
    2.5715    4.6105   -0.5060 H   0  0  0  0  0  0  0  0  0  0  0  0
    3.4469   -2.3622   -2.1179 H   0  0  0  0  0  0  0  0  0  0  0  0
    0.2135   -4.3846   -0.2077 H   0  0  0  0  0  0  0  0  0  0  0  0
   -4.0466    2.0071    0.2000 H   0  0  0  0  0  0  0  0  0  0  0  0
   -3.7084    0.5746    1.2009 H   0  0  0  0  0  0  0  0  0  0  0  0
    2.0193   -4.3523   -1.8792 H   0  0  0  0  0  0  0  0  0  0  0  0
 11 12  2  0  0  0  0
 11 25  1  0  0  0  0
  1 11  1  0  0  0  0
  8 12  1  0  0  0  0
  2 12  1  0  0  0  0
 13 25  1  0  0  0  0
  1  3  2  0  0  0  0
  8 19  1  0  0  0  0
  2  4  2  0  0  0  0
 13 14  2  0  0  0  0
 13 15  1  0  0  0  0
 19 21  1  0  0  0  0
 16 19  2  0  0  0  0
  5 14  1  0  0  0  0
 14 23  1  0  0  0  0
  6 15  2  0  0  0  0
 15 24  1  0  0  0  0
  9 21  1  0  0  0  0
  5  7  2  0  0  0  0
  9 20  1  0  0  0  0
 18 20  1  0  0  0  0
 17 20  2  0  0  0  0
  3  4  1  0  0  0  0
  6  7  1  0  0  0  0
 10 25  1  0  0  0  0
  1 26  1  0  0  0  0
  8 27  1  0  0  0  0
  8 28  1  0  0  0  0
  2 29  1  0  0  0  0
  3 30  1  0  0  0  0
  4 31  1  0  0  0  0
  5 32  1  0  0  0  0
  6 33  1  0  0  0  0
  9 34  1  0  0  0  0
  9 35  1  0  0  0  0
  7 36  1  0  0  0  0
 18 22  1  0  0  0  0
M  END
$$$$
