C8H8O
APtclcactv12151716283D 0   0.00000     0.00000
 
 17 17  0  0  0  0  0  0  0  0999 V2000
    1.6746    0.1045    0.0019 C   0  0  0  0  0  0  0  0  0  0  0  0
    2.4843   -1.1665    0.0021 C   0  0  0  0  0  0  0  0  0  0  0  0
    2.2345    1.1801   -0.0029 O   0  0  0  0  0  0  0  0  0  0  0  0
    0.2044    0.0403    0.0015 C   0  0  0  0  0  0  0  0  0  0  0  0
   -0.5506    1.2176    0.0013 C   0  0  0  0  0  0  0  0  0  0  0  0
   -1.9277    1.1491    0.0004 C   0  0  0  0  0  0  0  0  0  0  0  0
   -2.5631   -0.0805    0.0001 C   0  0  0  0  0  0  0  0  0  0  0  0
   -1.8230   -1.2500    0.0008 C   0  0  0  0  0  0  0  0  0  0  0  0
   -0.4451   -1.1982   -0.0046 C   0  0  0  0  0  0  0  0  0  0  0  0
    2.6834   -1.4703    1.0298 H   0  0  0  0  0  0  0  0  0  0  0  0
    1.9270   -1.9524   -0.5076 H   0  0  0  0  0  0  0  0  0  0  0  0
    3.4282   -0.9960   -0.5157 H   0  0  0  0  0  0  0  0  0  0  0  0
   -0.0562    2.1778    0.0022 H   0  0  0  0  0  0  0  0  0  0  0  0
   -2.5122    2.0573    0.0003 H   0  0  0  0  0  0  0  0  0  0  0  0
   -3.6421   -0.1276   -0.0002 H   0  0  0  0  0  0  0  0  0  0  0  0
   -2.3260   -2.2057    0.0009 H   0  0  0  0  0  0  0  0  0  0  0  0
    0.1311   -2.1117   -0.0041 H   0  0  0  0  0  0  0  0  0  0  0  0
  1  2  1  0  0  0  0
  1  3  2  0  0  0  0
  1  4  1  0  0  0  0
  4  5  2  0  0  0  0
  5  6  1  0  0  0  0
  6  7  2  0  0  0  0
  7  8  1  0  0  0  0
  8  9  2  0  0  0  0
  4  9  1  0  0  0  0
  2 10  1  0  0  0  0
  2 11  1  0  0  0  0
  2 12  1  0  0  0  0
  5 13  1  0  0  0  0
  6 14  1  0  0  0  0
  7 15  1  0  0  0  0
  8 16  1  0  0  0  0
  9 17  1  0  0  0  0
M  END
$$$$
