C12H15NO3
APtclcactv12111705003D 0   0.00000     0.00000
 
 31 31  0  0  0  0  0  0  0  0999 V2000
   -1.3752    0.9123    0.0609 C   0  0  0  0  0  0  0  0  0  0  0  0
   -2.6785    0.2181    0.0165 C   0  0  0  0  0  0  0  0  0  0  0  0
   -3.8651    0.9470    0.1179 C   0  0  0  0  0  0  0  0  0  0  0  0
   -5.0786    0.2924    0.0752 C   0  0  0  0  0  0  0  0  0  0  0  0
   -5.1216   -1.0832   -0.0672 C   0  0  0  0  0  0  0  0  0  0  0  0
   -3.9496   -1.8117   -0.1677 C   0  0  0  0  0  0  0  0  0  0  0  0
   -2.7293   -1.1692   -0.1328 C   0  0  0  0  0  0  0  0  0  0  0  0
   -1.3343    2.1199    0.1859 O   0  0  0  0  0  0  0  0  0  0  0  0
   -0.2322    0.2055   -0.0315 O   0  0  0  0  0  0  0  0  0  0  0  0
    1.0113    0.9536    0.0194 C   0  0  0  0  0  0  0  0  0  0  0  0
    2.1746    0.0028   -0.0978 C   0  0  0  0  0  0  0  0  0  0  0  0
    1.9754   -1.1880   -0.2129 O   0  0  0  0  0  0  0  0  0  0  0  0
    3.4365    0.4758   -0.0747 N   0  0  0  0  0  0  0  0  0  0  0  0
    4.5674   -0.4485   -0.1886 C   0  0  0  0  0  0  0  0  0  0  0  0
    5.7802    0.2963   -0.7502 C   0  0  0  0  0  0  0  0  0  0  0  0
    4.9085   -1.0098    1.1932 C   0  0  0  0  0  0  0  0  0  0  0  0
   -3.8329    2.0207    0.2298 H   0  0  0  0  0  0  0  0  0  0  0  0
   -5.9972    0.8550    0.1534 H   0  0  0  0  0  0  0  0  0  0  0  0
   -6.0744   -1.5907   -0.0997 H   0  0  0  0  0  0  0  0  0  0  0  0
   -3.9902   -2.8853   -0.2780 H   0  0  0  0  0  0  0  0  0  0  0  0
   -1.8152   -1.7390   -0.2117 H   0  0  0  0  0  0  0  0  0  0  0  0
    1.0404    1.6666   -0.8045 H   0  0  0  0  0  0  0  0  0  0  0  0
    1.0742    1.4897    0.9663 H   0  0  0  0  0  0  0  0  0  0  0  0
    3.5958    1.4282    0.0174 H   0  0  0  0  0  0  0  0  0  0  0  0
    4.3018   -1.2669   -0.8578 H   0  0  0  0  0  0  0  0  0  0  0  0
    6.0458    1.1147   -0.0811 H   0  0  0  0  0  0  0  0  0  0  0  0
    6.6216   -0.3913   -0.8350 H   0  0  0  0  0  0  0  0  0  0  0  0
    5.5371    0.6962   -1.7346 H   0  0  0  0  0  0  0  0  0  0  0  0
    4.0445   -1.5404    1.5933 H   0  0  0  0  0  0  0  0  0  0  0  0
    5.7500   -1.6974    1.1084 H   0  0  0  0  0  0  0  0  0  0  0  0
    5.1742   -0.1914    1.8623 H   0  0  0  0  0  0  0  0  0  0  0  0
  1  2  1  0  0  0  0
  2  3  2  0  0  0  0
  3  4  1  0  0  0  0
  4  5  2  0  0  0  0
  5  6  1  0  0  0  0
  6  7  2  0  0  0  0
  2  7  1  0  0  0  0
  1  8  2  0  0  0  0
  1  9  1  0  0  0  0
  9 10  1  0  0  0  0
 10 11  1  0  0  0  0
 11 12  2  0  0  0  0
 11 13  1  0  0  0  0
 13 14  1  0  0  0  0
 14 15  1  0  0  0  0
 14 16  1  0  0  0  0
  3 17  1  0  0  0  0
  4 18  1  0  0  0  0
  5 19  1  0  0  0  0
  6 20  1  0  0  0  0
  7 21  1  0  0  0  0
 10 22  1  0  0  0  0
 10 23  1  0  0  0  0
 13 24  1  0  0  0  0
 14 25  1  0  0  0  0
 15 26  1  0  0  0  0
 15 27  1  0  0  0  0
 15 28  1  0  0  0  0
 16 29  1  0  0  0  0
 16 30  1  0  0  0  0
 16 31  1  0  0  0  0
M  END
$$$$
