C13H17NO5
APtclcactv12071713273D 0   0.00000     0.00000
 
 36 36  0  0  0  0  0  0  0  0999 V2000
   -2.0133    0.6653   -0.3945 C   0  0  0  0  0  0  0  0  0  0  0  0
   -3.3837    0.1775   -0.1371 C   0  0  0  0  0  0  0  0  0  0  0  0
   -4.4850    0.9243   -0.5603 C   0  0  0  0  0  0  0  0  0  0  0  0
   -5.7620    0.4626   -0.3171 C   0  0  0  0  0  0  0  0  0  0  0  0
   -5.9528   -0.7373    0.3449 C   0  0  0  0  0  0  0  0  0  0  0  0
   -4.8660   -1.4822    0.7674 C   0  0  0  0  0  0  0  0  0  0  0  0
   -3.5835   -1.0354    0.5253 C   0  0  0  0  0  0  0  0  0  0  0  0
   -1.8426    1.7183   -0.9754 O   0  0  0  0  0  0  0  0  0  0  0  0
   -0.9530   -0.0549    0.0200 O   0  0  0  0  0  0  0  0  0  0  0  0
    0.3638    0.4853   -0.2672 C   0  0  0  0  0  0  0  0  0  0  0  0
    1.4179   -0.4496    0.2673 C   0  0  0  0  0  0  0  0  0  0  0  0
    1.0915   -1.4708    0.8345 O   0  0  0  0  0  0  0  0  0  0  0  0
    2.7233   -0.1511    0.1150 N   0  0  0  0  0  0  0  0  0  0  0  0
    3.1176    1.0824   -0.5701 C   0  0  0  0  0  0  0  0  0  0  0  0
    3.2407    2.2156    0.4505 C   0  0  0  0  0  0  0  0  0  0  0  0
    4.3086    1.9278    1.3553 O   0  0  0  0  0  0  0  0  0  0  0  0
    3.7481   -1.0600    0.6346 C   0  0  0  0  0  0  0  0  0  0  0  0
    4.1189   -2.0803   -0.4436 C   0  0  0  0  0  0  0  0  0  0  0  0
    4.7333   -1.4077   -1.5446 O   0  0  0  0  0  0  0  0  0  0  0  0
   -4.3374    1.8614   -1.0765 H   0  0  0  0  0  0  0  0  0  0  0  0
   -6.6147    1.0392   -0.6439 H   0  0  0  0  0  0  0  0  0  0  0  0
   -6.9547   -1.0940    0.5330 H   0  0  0  0  0  0  0  0  0  0  0  0
   -5.0220   -2.4176    1.2842 H   0  0  0  0  0  0  0  0  0  0  0  0
   -2.7361   -1.6178    0.8553 H   0  0  0  0  0  0  0  0  0  0  0  0
    0.4855    0.5920   -1.3451 H   0  0  0  0  0  0  0  0  0  0  0  0
    0.4681    1.4605    0.2085 H   0  0  0  0  0  0  0  0  0  0  0  0
    4.0775    0.9326   -1.0643 H   0  0  0  0  0  0  0  0  0  0  0  0
    2.3633    1.3425   -1.3127 H   0  0  0  0  0  0  0  0  0  0  0  0
    3.4468    3.1515   -0.0689 H   0  0  0  0  0  0  0  0  0  0  0  0
    2.3077    2.3066    1.0067 H   0  0  0  0  0  0  0  0  0  0  0  0
    4.4446    2.6055    2.0316 H   0  0  0  0  0  0  0  0  0  0  0  0
    4.6331   -0.4883    0.9136 H   0  0  0  0  0  0  0  0  0  0  0  0
    3.3612   -1.5812    1.5103 H   0  0  0  0  0  0  0  0  0  0  0  0
    4.8148   -2.8099   -0.0294 H   0  0  0  0  0  0  0  0  0  0  0  0
    3.2186   -2.5905   -0.7860 H   0  0  0  0  0  0  0  0  0  0  0  0
    4.9952   -1.9944   -2.2673 H   0  0  0  0  0  0  0  0  0  0  0  0
  1  2  1  0  0  0  0
  2  3  2  0  0  0  0
  3  4  1  0  0  0  0
  4  5  2  0  0  0  0
  5  6  1  0  0  0  0
  6  7  2  0  0  0  0
  2  7  1  0  0  0  0
  1  8  2  0  0  0  0
  1  9  1  0  0  0  0
  9 10  1  0  0  0  0
 10 11  1  0  0  0  0
 11 12  2  0  0  0  0
 11 13  1  0  0  0  0
 13 14  1  0  0  0  0
 14 15  1  0  0  0  0
 15 16  1  0  0  0  0
 13 17  1  0  0  0  0
 17 18  1  0  0  0  0
 18 19  1  0  0  0  0
  3 20  1  0  0  0  0
  4 21  1  0  0  0  0
  5 22  1  0  0  0  0
  6 23  1  0  0  0  0
  7 24  1  0  0  0  0
 10 25  1  0  0  0  0
 10 26  1  0  0  0  0
 14 27  1  0  0  0  0
 14 28  1  0  0  0  0
 15 29  1  0  0  0  0
 15 30  1  0  0  0  0
 16 31  1  0  0  0  0
 17 32  1  0  0  0  0
 17 33  1  0  0  0  0
 18 34  1  0  0  0  0
 18 35  1  0  0  0  0
 19 36  1  0  0  0  0
M  END
$$$$
