C13H17NO6
APtclcactv12071713273D 0   0.00000     0.00000
 
 37 37  0  0  0  0  0  0  0  0999 V2000
   -2.5399    0.9715   -0.0186 C   0  0  0  0  0  0  0  0  0  0  0  0
   -3.8075    0.2130   -0.0081 C   0  0  0  0  0  0  0  0  0  0  0  0
   -5.0293    0.8889   -0.0147 C   0  0  0  0  0  0  0  0  0  0  0  0
   -6.2092    0.1744   -0.0053 C   0  0  0  0  0  0  0  0  0  0  0  0
   -6.1839   -1.2089    0.0111 C   0  0  0  0  0  0  0  0  0  0  0  0
   -4.9767   -1.8851    0.0182 C   0  0  0  0  0  0  0  0  0  0  0  0
   -3.7893   -1.1831    0.0026 C   0  0  0  0  0  0  0  0  0  0  0  0
   -2.5589    2.1859   -0.0330 O   0  0  0  0  0  0  0  0  0  0  0  0
   -1.3629    0.3164   -0.0066 O   0  0  0  0  0  0  0  0  0  0  0  0
   -0.1576    1.1260   -0.0180 C   0  0  0  0  0  0  0  0  0  0  0  0
    1.0517    0.2270   -0.0021 C   0  0  0  0  0  0  0  0  0  0  0  0
    0.9116   -0.9776    0.0170 O   0  0  0  0  0  0  0  0  0  0  0  0
    2.2889    0.7615   -0.0091 N   0  0  0  0  0  0  0  0  0  0  0  0
    3.4646   -0.1125    0.0064 C   0  0  0  0  0  0  0  0  0  0  0  0
    3.4451   -1.0155   -1.2285 C   0  0  0  0  0  0  0  0  0  0  0  0
    3.4663   -0.2095   -2.4083 O   0  0  0  0  0  0  0  0  0  0  0  0
    4.7345    0.7406   -0.0056 C   0  0  0  0  0  0  0  0  0  0  0  0
    5.8813   -0.1119    0.0095 O   0  0  0  0  0  0  0  0  0  0  0  0
    3.4419   -0.9755    1.2696 C   0  0  0  0  0  0  0  0  0  0  0  0
    3.3426   -0.1336    2.4200 O   0  0  0  0  0  0  0  0  0  0  0  0
   -5.0504    1.9687   -0.0268 H   0  0  0  0  0  0  0  0  0  0  0  0
   -7.1549    0.6960   -0.0104 H   0  0  0  0  0  0  0  0  0  0  0  0
   -7.1107   -1.7634    0.0188 H   0  0  0  0  0  0  0  0  0  0  0  0
   -4.9641   -2.9649    0.0317 H   0  0  0  0  0  0  0  0  0  0  0  0
   -2.8477   -1.7121    0.0078 H   0  0  0  0  0  0  0  0  0  0  0  0
   -0.1415    1.7408   -0.9180 H   0  0  0  0  0  0  0  0  0  0  0  0
   -0.1437    1.7693    0.8618 H   0  0  0  0  0  0  0  0  0  0  0  0
    2.4010    1.7249   -0.0244 H   0  0  0  0  0  0  0  0  0  0  0  0
    4.3198   -1.6658   -1.2170 H   0  0  0  0  0  0  0  0  0  0  0  0
    2.5403   -1.6233   -1.2199 H   0  0  0  0  0  0  0  0  0  0  0  0
    3.4555   -0.7168   -3.2315 H   0  0  0  0  0  0  0  0  0  0  0  0
    4.7507    1.3554   -0.9055 H   0  0  0  0  0  0  0  0  0  0  0  0
    4.7484    1.3839    0.8742 H   0  0  0  0  0  0  0  0  0  0  0  0
    6.7240    0.3623    0.0030 H   0  0  0  0  0  0  0  0  0  0  0  0
    2.5838   -1.6469    1.2356 H   0  0  0  0  0  0  0  0  0  0  0  0
    4.3594   -1.5611    1.3261 H   0  0  0  0  0  0  0  0  0  0  0  0
    3.3230   -0.6143    3.2588 H   0  0  0  0  0  0  0  0  0  0  0  0
  1  2  1  0  0  0  0
  2  3  2  0  0  0  0
  3  4  1  0  0  0  0
  4  5  2  0  0  0  0
  5  6  1  0  0  0  0
  6  7  2  0  0  0  0
  2  7  1  0  0  0  0
  1  8  2  0  0  0  0
  1  9  1  0  0  0  0
  9 10  1  0  0  0  0
 10 11  1  0  0  0  0
 11 12  2  0  0  0  0
 11 13  1  0  0  0  0
 13 14  1  0  0  0  0
 14 15  1  0  0  0  0
 15 16  1  0  0  0  0
 14 17  1  0  0  0  0
 17 18  1  0  0  0  0
 14 19  1  0  0  0  0
 19 20  1  0  0  0  0
  3 21  1  0  0  0  0
  4 22  1  0  0  0  0
  5 23  1  0  0  0  0
  6 24  1  0  0  0  0
  7 25  1  0  0  0  0
 10 26  1  0  0  0  0
 10 27  1  0  0  0  0
 13 28  1  0  0  0  0
 15 29  1  0  0  0  0
 15 30  1  0  0  0  0
 16 31  1  0  0  0  0
 17 32  1  0  0  0  0
 17 33  1  0  0  0  0
 18 34  1  0  0  0  0
 19 35  1  0  0  0  0
 19 36  1  0  0  0  0
 20 37  1  0  0  0  0
M  END
$$$$
