C2H5NO
APtclcactv12101715343D 0   0.00000     0.00000
 
  9  8  0  0  0  0  0  0  0  0999 V2000
    0.0302    0.0586   -0.0015 C   0  0  0  0  0  0  0  0  0  0  0  0
   -1.4039   -0.4041    0.0002 C   0  0  0  0  0  0  0  0  0  0  0  0
    0.2848    1.2444    0.0005 O   0  0  0  0  0  0  0  0  0  0  0  0
    1.0300   -0.8452    0.0003 N   0  0  0  0  0  0  0  0  0  0  0  0
   -1.7517   -0.5135   -1.0270 H   0  0  0  0  0  0  0  0  0  0  0  0
   -1.4754   -1.3638    0.5122 H   0  0  0  0  0  0  0  0  0  0  0  0
   -2.0220    0.3302    0.5168 H   0  0  0  0  0  0  0  0  0  0  0  0
    0.8264   -1.7936    0.0027 H   0  0  0  0  0  0  0  0  0  0  0  0
    1.9531   -0.5474   -0.0009 H   0  0  0  0  0  0  0  0  0  0  0  0
  1  2  1  0  0  0  0
  1  3  2  0  0  0  0
  1  4  1  0  0  0  0
  2  5  1  0  0  0  0
  2  6  1  0  0  0  0
  2  7  1  0  0  0  0
  4  8  1  0  0  0  0
  4  9  1  0  0  0  0
M  END
$$$$
