C4H6N4O3S2
APtclcactv12211716373D 0   0.00000     0.00000
 
 19 19  0  0  0  0  0  0  0  0999 V2000
    5.1946    0.2262    0.0041 C   0  0  0  0  0  0  0  0  0  0  0  0
   -4.0973   -1.8253    0.4200 H   0  0  0  0  0  0  0  0  0  0  0  0
   -2.7162   -2.2756   -0.4241 H   0  0  0  0  0  0  0  0  0  0  0  0
    2.9939    1.6623    0.0000 H   0  0  0  0  0  0  0  0  0  0  0  0
   -0.9799   -0.0423   -0.0038 C   0  0  0  0  0  0  0  0  0  0  0  0
    1.4382    0.3192   -0.0010 C   0  0  0  0  0  0  0  0  0  0  0  0
   -3.1317    0.5327    1.2520 O   0  0  0  0  0  0  0  0  0  0  0  0
   -3.1375    0.5376   -1.2474 O   0  0  0  0  0  0  0  0  0  0  0  0
    3.4715   -1.3865    0.0031 O   0  0  0  0  0  0  0  0  0  0  0  0
    3.7510   -0.2063    0.0025 C   0  0  0  0  0  0  0  0  0  0  0  0
   -3.2561   -1.5894   -0.0015 N   0  0  0  0  0  0  0  0  0  0  0  0
    2.7704    0.7184    0.0005 N   0  0  0  0  0  0  0  0  0  0  0  0
   -0.2321   -1.0999   -0.0020 N   0  0  0  0  0  0  0  0  0  0  0  0
    1.0159   -0.9091   -0.0005 N   0  0  0  0  0  0  0  0  0  0  0  0
   -2.7417   -0.0154    0.0003 S   0  0  0  0  0  0  0  0  0  0  0  0
    0.0822    1.3660   -0.0036 S   0  0  0  0  0  0  0  0  0  0  0  0
    5.3940    0.8235    0.8938 H   0  0  0  0  0  0  0  0  0  0  0  0
    5.8376   -0.6539    0.0056 H   0  0  0  0  0  0  0  0  0  0  0  0
    5.3963    0.8220   -0.8861 H   0  0  0  0  0  0  0  0  0  0  0  0
  5 16  1  0  0  0  0
  5 13  2  0  0  0  0
  5 15  1  0  0  0  0
  6 16  1  0  0  0  0
 13 14  1  0  0  0  0
 11 15  1  0  0  0  0
  7 15  2  0  0  0  0
  8 15  2  0  0  0  0
  6 12  1  0  0  0  0
 10 12  1  0  0  0  0
  1 10  1  0  0  0  0
  9 10  2  0  0  0  0
  6 14  2  0  0  0  0
  2 11  1  0  0  0  0
  3 11  1  0  0  0  0
  4 12  1  0  0  0  0
  1 17  1  0  0  0  0
  1 18  1  0  0  0  0
  1 19  1  0  0  0  0
M  END
$$$$
