C8H9NO
APtclcactv12151716303D 0   0.00000     0.00000
 
 19 19  0  0  0  0  0  0  0  0999 V2000
   -2.0708   -0.0577    0.0602 C   0  0  0  0  0  0  0  0  0  0  0  0
   -3.5077    0.3918   -0.0052 C   0  0  0  0  0  0  0  0  0  0  0  0
   -1.8008   -1.1687    0.4650 O   0  0  0  0  0  0  0  0  0  0  0  0
   -1.0862    0.7728   -0.3364 N   0  0  0  0  0  0  0  0  0  0  0  0
    0.2522    0.3934   -0.1857 C   0  0  0  0  0  0  0  0  0  0  0  0
    0.6204   -0.9363   -0.3433 C   0  0  0  0  0  0  0  0  0  0  0  0
    1.9423   -1.3076   -0.1939 C   0  0  0  0  0  0  0  0  0  0  0  0
    2.8986   -0.3569    0.1129 C   0  0  0  0  0  0  0  0  0  0  0  0
    2.5350    0.9678    0.2709 C   0  0  0  0  0  0  0  0  0  0  0  0
    1.2159    1.3466    0.1163 C   0  0  0  0  0  0  0  0  0  0  0  0
   -3.7832    0.8664    0.9366 H   0  0  0  0  0  0  0  0  0  0  0  0
   -3.6285    1.1052   -0.8204 H   0  0  0  0  0  0  0  0  0  0  0  0
   -4.1508   -0.4709   -0.1791 H   0  0  0  0  0  0  0  0  0  0  0  0
   -1.3054    1.6335   -0.7262 H   0  0  0  0  0  0  0  0  0  0  0  0
   -0.1260   -1.6793   -0.5822 H   0  0  0  0  0  0  0  0  0  0  0  0
    2.2294   -2.3415   -0.3163 H   0  0  0  0  0  0  0  0  0  0  0  0
    3.9315   -0.6499    0.2296 H   0  0  0  0  0  0  0  0  0  0  0  0
    3.2841    1.7078    0.5112 H   0  0  0  0  0  0  0  0  0  0  0  0
    0.9326    2.3815    0.2395 H   0  0  0  0  0  0  0  0  0  0  0  0
  1  2  1  0  0  0  0
  1  3  2  0  0  0  0
  1  4  1  0  0  0  0
  4  5  1  0  0  0  0
  5  6  2  0  0  0  0
  6  7  1  0  0  0  0
  7  8  2  0  0  0  0
  8  9  1  0  0  0  0
  9 10  2  0  0  0  0
  5 10  1  0  0  0  0
  2 11  1  0  0  0  0
  2 12  1  0  0  0  0
  2 13  1  0  0  0  0
  4 14  1  0  0  0  0
  6 15  1  0  0  0  0
  7 16  1  0  0  0  0
  8 17  1  0  0  0  0
  9 18  1  0  0  0  0
 10 19  1  0  0  0  0
M  END
$$$$
