C13H15N3O4S
APtclcactv12071713263D 0   0.00000     0.00000
 
 36 37  0  0  0  0  0  0  0  0999 V2000
    2.7859    0.8756   -0.0790 C   0  0  0  0  0  0  0  0  0  0  0  0
    2.0157   -1.2656    0.6744 C   0  0  0  0  0  0  0  0  0  0  0  0
    3.9660    0.3031   -0.5111 C   0  0  0  0  0  0  0  0  0  0  0  0
    3.1935   -1.8445    0.2445 C   0  0  0  0  0  0  0  0  0  0  0  0
   -1.6226    1.6039   -2.3631 C   0  0  0  0  0  0  0  0  0  0  0  0
   -3.7033    0.8814    0.8467 C   0  0  0  0  0  0  0  0  0  0  0  0
   -4.8465   -2.0594    0.1125 C   0  0  0  0  0  0  0  0  0  0  0  0
    6.0502   -1.0951   -1.2024 H   0  0  0  0  0  0  0  0  0  0  0  0
    5.5104   -2.5959   -0.6741 H   0  0  0  0  0  0  0  0  0  0  0  0
   -1.6827   -0.2658   -0.2810 C   0  0  0  0  0  0  0  0  0  0  0  0
   -2.9726   -0.2471    0.1658 C   0  0  0  0  0  0  0  0  0  0  0  0
    1.8118    0.0926    0.5129 C   0  0  0  0  0  0  0  0  0  0  0  0
   -3.4619   -1.5290   -0.1569 C   0  0  0  0  0  0  0  0  0  0  0  0
    4.1741   -1.0609   -0.3505 C   0  0  0  0  0  0  0  0  0  0  0  0
   -0.2131   -0.0305    2.0693 O   0  0  0  0  0  0  0  0  0  0  0  0
    0.5902    2.2023    1.2841 O   0  0  0  0  0  0  0  0  0  0  0  0
    0.0139    2.6700   -1.0384 O   0  0  0  0  0  0  0  0  0  0  0  0
   -0.7302    1.7194   -1.1542 C   0  0  0  0  0  0  0  0  0  0  0  0
    5.3663   -1.6433   -0.7868 N   0  0  0  0  0  0  0  0  0  0  0  0
   -2.4819   -2.1655   -0.7341 N   0  0  0  0  0  0  0  0  0  0  0  0
    0.3078    0.8273    1.0633 S   0  0  0  0  0  0  0  0  0  0  0  0
   -0.7591    0.7663   -0.2017 N   0  0  0  0  0  0  0  0  0  0  0  0
   -1.4853   -1.4849   -0.8073 O   0  0  0  0  0  0  0  0  0  0  0  0
   -2.1463    0.6482   -2.3381 H   0  0  0  0  0  0  0  0  0  0  0  0
   -2.3490    2.4165   -2.3575 H   0  0  0  0  0  0  0  0  0  0  0  0
   -1.0179    1.6633   -3.2680 H   0  0  0  0  0  0  0  0  0  0  0  0
   -4.2638    1.4510    0.1054 H   0  0  0  0  0  0  0  0  0  0  0  0
   -4.3909    0.4742    1.5880 H   0  0  0  0  0  0  0  0  0  0  0  0
   -2.9837    1.5354    1.3393 H   0  0  0  0  0  0  0  0  0  0  0  0
    2.6253    1.9368   -0.1996 H   0  0  0  0  0  0  0  0  0  0  0  0
    1.2529   -1.8742    1.1371 H   0  0  0  0  0  0  0  0  0  0  0  0
   -5.4922   -1.8380   -0.7373 H   0  0  0  0  0  0  0  0  0  0  0  0
   -4.7996   -3.1381    0.2618 H   0  0  0  0  0  0  0  0  0  0  0  0
   -5.2492   -1.5858    1.0079 H   0  0  0  0  0  0  0  0  0  0  0  0
    4.7262    0.9151   -0.9737 H   0  0  0  0  0  0  0  0  0  0  0  0
    3.3521   -2.9053    0.3709 H   0  0  0  0  0  0  0  0  0  0  0  0
 10 22  1  0  0  0  0
 21 22  1  0  0  0  0
 18 22  1  0  0  0  0
 10 11  2  0  0  0  0
 10 23  1  0  0  0  0
 12 21  1  0  0  0  0
 15 21  2  0  0  0  0
 16 21  2  0  0  0  0
  5 18  1  0  0  0  0
 17 18  2  0  0  0  0
 11 13  1  0  0  0  0
  6 11  1  0  0  0  0
 20 23  1  0  0  0  0
  1 12  2  0  0  0  0
  2 12  1  0  0  0  0
  7 13  1  0  0  0  0
  1  3  1  0  0  0  0
  2  4  2  0  0  0  0
  3 14  2  0  0  0  0
 14 19  1  0  0  0  0
 13 20  2  0  0  0  0
  4 14  1  0  0  0  0
  5 24  1  0  0  0  0
  5 25  1  0  0  0  0
  5 26  1  0  0  0  0
  6 27  1  0  0  0  0
  6 28  1  0  0  0  0
  6 29  1  0  0  0  0
  1 30  1  0  0  0  0
  2 31  1  0  0  0  0
  7 32  1  0  0  0  0
  7 33  1  0  0  0  0
  7 34  1  0  0  0  0
  3 35  1  0  0  0  0
  4 36  1  0  0  0  0
  8 19  1  0  0  0  0
  9 19  1  0  0  0  0
M  END
$$$$
