C13H17NO3
APtclcactv12071713273D 0   0.00000     0.00000
 
 34 34  0  0  0  0  0  0  0  0999 V2000
   -1.6598    0.9612   -0.0027 C   0  0  0  0  0  0  0  0  0  0  0  0
   -2.9373    0.2194   -0.0006 C   0  0  0  0  0  0  0  0  0  0  0  0
   -4.1501    0.9113    0.0032 C   0  0  0  0  0  0  0  0  0  0  0  0
   -5.3393    0.2123    0.0046 C   0  0  0  0  0  0  0  0  0  0  0  0
   -5.3322   -1.1713    0.0026 C   0  0  0  0  0  0  0  0  0  0  0  0
   -4.1340   -1.8633   -0.0007 C   0  0  0  0  0  0  0  0  0  0  0  0
   -2.9375   -1.1769   -0.0084 C   0  0  0  0  0  0  0  0  0  0  0  0
   -1.6629    2.1759   -0.0009 O   0  0  0  0  0  0  0  0  0  0  0  0
   -0.4915    0.2905   -0.0008 O   0  0  0  0  0  0  0  0  0  0  0  0
    0.7242    1.0844   -0.0029 C   0  0  0  0  0  0  0  0  0  0  0  0
    1.9217    0.1694   -0.0004 C   0  0  0  0  0  0  0  0  0  0  0  0
    1.7658   -1.0334    0.0029 O   0  0  0  0  0  0  0  0  0  0  0  0
    3.1658    0.6876   -0.0018 N   0  0  0  0  0  0  0  0  0  0  0  0
    4.3298   -0.2019    0.0007 C   0  0  0  0  0  0  0  0  0  0  0  0
    4.2972   -1.0881   -1.2461 C   0  0  0  0  0  0  0  0  0  0  0  0
    5.6109    0.6346   -0.0016 C   0  0  0  0  0  0  0  0  0  0  0  0
    4.2971   -1.0812    1.2523 C   0  0  0  0  0  0  0  0  0  0  0  0
   -4.1570    1.9913    0.0055 H   0  0  0  0  0  0  0  0  0  0  0  0
   -6.2781    0.7463    0.0076 H   0  0  0  0  0  0  0  0  0  0  0  0
   -6.2662   -1.7137    0.0041 H   0  0  0  0  0  0  0  0  0  0  0  0
   -4.1356   -2.9433   -0.0016 H   0  0  0  0  0  0  0  0  0  0  0  0
   -2.0030   -1.7182   -0.0114 H   0  0  0  0  0  0  0  0  0  0  0  0
    0.7476    1.7108   -0.8946 H   0  0  0  0  0  0  0  0  0  0  0  0
    0.7475    1.7157    0.8853 H   0  0  0  0  0  0  0  0  0  0  0  0
    3.2905    1.6496   -0.0044 H   0  0  0  0  0  0  0  0  0  0  0  0
    4.3205   -0.4616   -2.1378 H   0  0  0  0  0  0  0  0  0  0  0  0
    5.1632   -1.7499   -1.2443 H   0  0  0  0  0  0  0  0  0  0  0  0
    3.3845   -1.6840   -1.2445 H   0  0  0  0  0  0  0  0  0  0  0  0
    5.6342    1.2659    0.8867 H   0  0  0  0  0  0  0  0  0  0  0  0
    6.4770   -0.0272    0.0002 H   0  0  0  0  0  0  0  0  0  0  0  0
    5.6342    1.2610   -0.8933 H   0  0  0  0  0  0  0  0  0  0  0  0
    3.3844   -1.6771    1.2540 H   0  0  0  0  0  0  0  0  0  0  0  0
    5.1632   -1.7430    1.2542 H   0  0  0  0  0  0  0  0  0  0  0  0
    4.3204   -0.4499    2.1406 H   0  0  0  0  0  0  0  0  0  0  0  0
  1  2  1  0  0  0  0
  2  3  2  0  0  0  0
  3  4  1  0  0  0  0
  4  5  2  0  0  0  0
  5  6  1  0  0  0  0
  6  7  2  0  0  0  0
  2  7  1  0  0  0  0
  1  8  2  0  0  0  0
  1  9  1  0  0  0  0
  9 10  1  0  0  0  0
 10 11  1  0  0  0  0
 11 12  2  0  0  0  0
 11 13  1  0  0  0  0
 13 14  1  0  0  0  0
 14 15  1  0  0  0  0
 14 16  1  0  0  0  0
 14 17  1  0  0  0  0
  3 18  1  0  0  0  0
  4 19  1  0  0  0  0
  5 20  1  0  0  0  0
  6 21  1  0  0  0  0
  7 22  1  0  0  0  0
 10 23  1  0  0  0  0
 10 24  1  0  0  0  0
 13 25  1  0  0  0  0
 15 26  1  0  0  0  0
 15 27  1  0  0  0  0
 15 28  1  0  0  0  0
 16 29  1  0  0  0  0
 16 30  1  0  0  0  0
 16 31  1  0  0  0  0
 17 32  1  0  0  0  0
 17 33  1  0  0  0  0
 17 34  1  0  0  0  0
M  END
$$$$
