C11H13NO3
APtclcactv12211717333D 0   0.00000     0.00000
 
 28 28  0  0  0  0  0  0  0  0999 V2000
   -0.8257    0.8099   -0.0019 C   0  0  0  0  0  0  0  0  0  0  0  0
   -2.1859    0.2336   -0.0005 C   0  0  0  0  0  0  0  0  0  0  0  0
   -3.3026    1.0718    0.0032 C   0  0  0  0  0  0  0  0  0  0  0  0
   -4.5699    0.5270    0.0041 C   0  0  0  0  0  0  0  0  0  0  0  0
   -4.7359   -0.8467    0.0016 C   0  0  0  0  0  0  0  0  0  0  0  0
   -3.6336   -1.6831   -0.0017 C   0  0  0  0  0  0  0  0  0  0  0  0
   -2.3607   -1.1517   -0.0088 C   0  0  0  0  0  0  0  0  0  0  0  0
   -0.6768    2.0154    0.0002 O   0  0  0  0  0  0  0  0  0  0  0  0
    0.2496   -0.0016    0.0000 O   0  0  0  0  0  0  0  0  0  0  0  0
    1.5551    0.6340   -0.0015 C   0  0  0  0  0  0  0  0  0  0  0  0
    2.6287   -0.4236    0.0011 C   0  0  0  0  0  0  0  0  0  0  0  0
    2.3236   -1.5974    0.0039 O   0  0  0  0  0  0  0  0  0  0  0  0
    3.9279   -0.0650    0.0002 N   0  0  0  0  0  0  0  0  0  0  0  0
    4.9715   -1.0931    0.0027 C   0  0  0  0  0  0  0  0  0  0  0  0
    4.2964    1.3529   -0.0033 C   0  0  0  0  0  0  0  0  0  0  0  0
   -3.1744    2.1442    0.0059 H   0  0  0  0  0  0  0  0  0  0  0  0
   -5.4345    1.1742    0.0070 H   0  0  0  0  0  0  0  0  0  0  0  0
   -5.7303   -1.2679    0.0026 H   0  0  0  0  0  0  0  0  0  0  0  0
   -3.7702   -2.7544   -0.0028 H   0  0  0  0  0  0  0  0  0  0  0  0
   -1.5012   -1.8056   -0.0117 H   0  0  0  0  0  0  0  0  0  0  0  0
    1.6569    1.2529   -0.8930 H   0  0  0  0  0  0  0  0  0  0  0  0
    1.6569    1.2572    0.8869 H   0  0  0  0  0  0  0  0  0  0  0  0
    5.2304   -1.3506   -1.0244 H   0  0  0  0  0  0  0  0  0  0  0  0
    5.8550   -0.7128    0.5156 H   0  0  0  0  0  0  0  0  0  0  0  0
    4.6058   -1.9808    0.5187 H   0  0  0  0  0  0  0  0  0  0  0  0
    4.3878    1.7071    1.0235 H   0  0  0  0  0  0  0  0  0  0  0  0
    5.2492    1.4794   -0.5174 H   0  0  0  0  0  0  0  0  0  0  0  0
    3.5264    1.9272   -0.5185 H   0  0  0  0  0  0  0  0  0  0  0  0
  1  2  1  0  0  0  0
  2  3  2  0  0  0  0
  3  4  1  0  0  0  0
  4  5  2  0  0  0  0
  5  6  1  0  0  0  0
  6  7  2  0  0  0  0
  2  7  1  0  0  0  0
  1  8  2  0  0  0  0
  1  9  1  0  0  0  0
  9 10  1  0  0  0  0
 10 11  1  0  0  0  0
 11 12  2  0  0  0  0
 11 13  1  0  0  0  0
 13 14  1  0  0  0  0
 13 15  1  0  0  0  0
  3 16  1  0  0  0  0
  4 17  1  0  0  0  0
  5 18  1  0  0  0  0
  6 19  1  0  0  0  0
  7 20  1  0  0  0  0
 10 21  1  0  0  0  0
 10 22  1  0  0  0  0
 14 23  1  0  0  0  0
 14 24  1  0  0  0  0
 14 25  1  0  0  0  0
 15 26  1  0  0  0  0
 15 27  1  0  0  0  0
 15 28  1  0  0  0  0
M  END
$$$$
