C16H21NO3
APtclcactv12211717133D 0   0.00000     0.00000
 
 41 42  0  0  0  0  0  0  0  0999 V2000
   -2.6260    0.8518   -0.0023 C   0  0  0  0  0  0  0  0  0  0  0  0
   -3.8966    0.0981   -0.0003 C   0  0  0  0  0  0  0  0  0  0  0  0
   -5.1157    0.7787    0.0037 C   0  0  0  0  0  0  0  0  0  0  0  0
   -6.2984    0.0686    0.0050 C   0  0  0  0  0  0  0  0  0  0  0  0
   -6.2784   -1.3149    0.0029 C   0  0  0  0  0  0  0  0  0  0  0  0
   -5.0738   -1.9957   -0.0006 C   0  0  0  0  0  0  0  0  0  0  0  0
   -3.8837   -1.2981   -0.0082 C   0  0  0  0  0  0  0  0  0  0  0  0
   -2.6404    2.0664   -0.0004 O   0  0  0  0  0  0  0  0  0  0  0  0
   -1.4515    0.1921   -0.0005 O   0  0  0  0  0  0  0  0  0  0  0  0
   -0.2432    0.9972   -0.0026 C   0  0  0  0  0  0  0  0  0  0  0  0
    0.9627    0.0934   -0.0002 C   0  0  0  0  0  0  0  0  0  0  0  0
    0.8180   -1.1108    0.0030 O   0  0  0  0  0  0  0  0  0  0  0  0
    2.2019    0.6232   -0.0016 N   0  0  0  0  0  0  0  0  0  0  0  0
    2.3767    2.0778   -0.0054 C   0  0  0  0  0  0  0  0  0  0  0  0
    3.3742   -0.2554    0.0007 C   0  0  0  0  0  0  0  0  0  0  0  0
    4.2149    0.0126   -1.2492 C   0  0  0  0  0  0  0  0  0  0  0  0
    5.4392   -0.9050   -1.2468 C   0  0  0  0  0  0  0  0  0  0  0  0
    6.2798   -0.6305    0.0018 C   0  0  0  0  0  0  0  0  0  0  0  0
    5.4392   -0.8984    1.2517 C   0  0  0  0  0  0  0  0  0  0  0  0
    4.2149    0.0192    1.2493 C   0  0  0  0  0  0  0  0  0  0  0  0
   -5.1327    1.8585    0.0061 H   0  0  0  0  0  0  0  0  0  0  0  0
   -7.2421    0.5938    0.0081 H   0  0  0  0  0  0  0  0  0  0  0  0
   -7.2072   -1.8659    0.0043 H   0  0  0  0  0  0  0  0  0  0  0  0
   -5.0653   -3.0757   -0.0015 H   0  0  0  0  0  0  0  0  0  0  0  0
   -2.9442   -1.8307   -0.0113 H   0  0  0  0  0  0  0  0  0  0  0  0
   -0.2258    1.6239   -0.8942 H   0  0  0  0  0  0  0  0  0  0  0  0
   -0.2258    1.6286    0.8857 H   0  0  0  0  0  0  0  0  0  0  0  0
    2.4200    2.4412    1.0213 H   0  0  0  0  0  0  0  0  0  0  0  0
    3.3037    2.3310   -0.5199 H   0  0  0  0  0  0  0  0  0  0  0  0
    1.5364    2.5433   -0.5205 H   0  0  0  0  0  0  0  0  0  0  0  0
    3.0486   -1.2956    0.0035 H   0  0  0  0  0  0  0  0  0  0  0  0
    3.6160   -0.1830   -2.1387 H   0  0  0  0  0  0  0  0  0  0  0  0
    4.5405    1.0528   -1.2519 H   0  0  0  0  0  0  0  0  0  0  0  0
    5.1136   -1.9453   -1.2440 H   0  0  0  0  0  0  0  0  0  0  0  0
    6.0381   -0.7141   -2.1372 H   0  0  0  0  0  0  0  0  0  0  0  0
    7.1520   -1.2842    0.0035 H   0  0  0  0  0  0  0  0  0  0  0  0
    6.6054    0.4098   -0.0010 H   0  0  0  0  0  0  0  0  0  0  0  0
    5.1136   -1.9387    1.2545 H   0  0  0  0  0  0  0  0  0  0  0  0
    6.0380   -0.7028    2.1412 H   0  0  0  0  0  0  0  0  0  0  0  0
    4.5405    1.0594    1.2465 H   0  0  0  0  0  0  0  0  0  0  0  0
    3.6159   -0.1717    2.1398 H   0  0  0  0  0  0  0  0  0  0  0  0
  1  2  1  0  0  0  0
  2  3  2  0  0  0  0
  3  4  1  0  0  0  0
  4  5  2  0  0  0  0
  5  6  1  0  0  0  0
  6  7  2  0  0  0  0
  2  7  1  0  0  0  0
  1  8  2  0  0  0  0
  1  9  1  0  0  0  0
  9 10  1  0  0  0  0
 10 11  1  0  0  0  0
 11 12  2  0  0  0  0
 11 13  1  0  0  0  0
 13 14  1  0  0  0  0
 13 15  1  0  0  0  0
 15 16  1  0  0  0  0
 16 17  1  0  0  0  0
 17 18  1  0  0  0  0
 18 19  1  0  0  0  0
 19 20  1  0  0  0  0
 15 20  1  0  0  0  0
  3 21  1  0  0  0  0
  4 22  1  0  0  0  0
  5 23  1  0  0  0  0
  6 24  1  0  0  0  0
  7 25  1  0  0  0  0
 10 26  1  0  0  0  0
 10 27  1  0  0  0  0
 14 28  1  0  0  0  0
 14 29  1  0  0  0  0
 14 30  1  0  0  0  0
 15 31  1  0  0  0  0
 16 32  1  0  0  0  0
 16 33  1  0  0  0  0
 17 34  1  0  0  0  0
 17 35  1  0  0  0  0
 18 36  1  0  0  0  0
 18 37  1  0  0  0  0
 19 38  1  0  0  0  0
 19 39  1  0  0  0  0
 20 40  1  0  0  0  0
 20 41  1  0  0  0  0
M  END
$$$$
