C14H20ClNO2
APtclcactv12211717033D 0   0.00000     0.00000
 
 38 38  0  0  0  0  0  0  0  0999 V2000
    2.5733   -2.0849    0.3031 C   0  0  0  0  0  0  0  0  0  0  0  0
    2.4742   -0.3667    1.9713 C   0  0  0  0  0  0  0  0  0  0  0  0
    3.0967   -1.4762    1.4288 C   0  0  0  0  0  0  0  0  0  0  0  0
   -0.2661    0.9379   -1.4818 C   0  0  0  0  0  0  0  0  0  0  0  0
    0.8562   -2.2507   -1.5099 C   0  0  0  0  0  0  0  0  0  0  0  0
   -2.8249    0.1471   -0.5483 C   0  0  0  0  0  0  0  0  0  0  0  0
    1.5024    2.4281   -0.8521 C   0  0  0  0  0  0  0  0  0  0  0  0
    0.6494    1.3454    1.9818 C   0  0  0  0  0  0  0  0  0  0  0  0
    1.5761   -1.7275   -2.7545 C   0  0  0  0  0  0  0  0  0  0  0  0
    1.7635    3.8098   -0.2490 C   0  0  0  0  0  0  0  0  0  0  0  0
    0.7990   -0.4725    0.2589 C   0  0  0  0  0  0  0  0  0  0  0  0
    1.4263   -1.5863   -0.2833 C   0  0  0  0  0  0  0  0  0  0  0  0
    1.3271    0.1364    1.3901 C   0  0  0  0  0  0  0  0  0  0  0  0
   -1.6518   -0.9813    1.1607 O   0  0  0  0  0  0  0  0  0  0  0  0
   -1.5722   -0.3075    0.1554 C   0  0  0  0  0  0  0  0  0  0  0  0
    0.0967    2.2447   -1.0315 O   0  0  0  0  0  0  0  0  0  0  0  0
   -4.2673   -0.3407    0.4173 Cl  0  0  0  0  0  0  0  0  0  0  0  0
   -0.3633    0.0348   -0.3324 N   0  0  0  0  0  0  0  0  0  0  0  0
   -1.2290    0.9833   -1.9907 H   0  0  0  0  0  0  0  0  0  0  0  0
    0.4923    0.5677   -2.1717 H   0  0  0  0  0  0  0  0  0  0  0  0
    3.0642   -2.9485   -0.1207 H   0  0  0  0  0  0  0  0  0  0  0  0
   -0.2077   -2.0253   -1.5839 H   0  0  0  0  0  0  0  0  0  0  0  0
    0.9948   -3.3293   -1.4365 H   0  0  0  0  0  0  0  0  0  0  0  0
    2.8854    0.1063    2.8508 H   0  0  0  0  0  0  0  0  0  0  0  0
   -0.0852    1.0249    2.7206 H   0  0  0  0  0  0  0  0  0  0  0  0
    1.3939    1.9807    2.4616 H   0  0  0  0  0  0  0  0  0  0  0  0
    0.1494    1.9049    1.1913 H   0  0  0  0  0  0  0  0  0  0  0  0
   -2.8087    1.2318   -0.6546 H   0  0  0  0  0  0  0  0  0  0  0  0
   -2.8751   -0.3139   -1.5347 H   0  0  0  0  0  0  0  0  0  0  0  0
    3.9934   -1.8682    1.8856 H   0  0  0  0  0  0  0  0  0  0  0  0
    1.3532   -0.6685   -2.8849 H   0  0  0  0  0  0  0  0  0  0  0  0
    2.6513   -1.8604   -2.6350 H   0  0  0  0  0  0  0  0  0  0  0  0
    1.2366   -2.2807   -3.6301 H   0  0  0  0  0  0  0  0  0  0  0  0
    2.0048    2.3517   -1.8164 H   0  0  0  0  0  0  0  0  0  0  0  0
    1.8863    1.6602   -0.1805 H   0  0  0  0  0  0  0  0  0  0  0  0
    1.3797    4.5778   -0.9206 H   0  0  0  0  0  0  0  0  0  0  0  0
    1.2611    3.8862    0.7153 H   0  0  0  0  0  0  0  0  0  0  0  0
    2.8358    3.9498   -0.1122 H   0  0  0  0  0  0  0  0  0  0  0  0
 11 18  1  0  0  0  0
 11 12  2  0  0  0  0
 11 13  1  0  0  0  0
 15 18  1  0  0  0  0
  4 18  1  0  0  0  0
  1 12  1  0  0  0  0
  5 12  1  0  0  0  0
  2 13  2  0  0  0  0
  8 13  1  0  0  0  0
  6 15  1  0  0  0  0
 14 15  2  0  0  0  0
  4 16  1  0  0  0  0
  1  3  2  0  0  0  0
  5  9  1  0  0  0  0
  6 17  1  0  0  0  0
  7 16  1  0  0  0  0
  7 10  1  0  0  0  0
  2  3  1  0  0  0  0
  4 19  1  0  0  0  0
  4 20  1  0  0  0  0
  1 21  1  0  0  0  0
  5 22  1  0  0  0  0
  5 23  1  0  0  0  0
  2 24  1  0  0  0  0
  8 25  1  0  0  0  0
  8 26  1  0  0  0  0
  8 27  1  0  0  0  0
  6 28  1  0  0  0  0
  6 29  1  0  0  0  0
  3 30  1  0  0  0  0
  9 31  1  0  0  0  0
  9 32  1  0  0  0  0
  9 33  1  0  0  0  0
  7 34  1  0  0  0  0
  7 35  1  0  0  0  0
 10 36  1  0  0  0  0
 10 37  1  0  0  0  0
 10 38  1  0  0  0  0
M  END
$$$$
