C4H6O3
APtclcactv12211716383D 0   0.00000     0.00000
 
 13 12  0  0  0  0  0  0  0  0999 V2000
   -1.1471   -0.0463   -0.0011 C   0  0  0  0  0  0  0  0  0  0  0  0
   -2.4714   -0.7654   -0.0006 C   0  0  0  0  0  0  0  0  0  0  0  0
   -1.1154    1.1614    0.0023 O   0  0  0  0  0  0  0  0  0  0  0  0
   -0.0000   -0.7493    0.0002 O   0  0  0  0  0  0  0  0  0  0  0  0
    1.1471   -0.0464   -0.0003 C   0  0  0  0  0  0  0  0  0  0  0  0
    2.4714   -0.7654    0.0011 C   0  0  0  0  0  0  0  0  0  0  0  0
    1.1154    1.1614   -0.0019 O   0  0  0  0  0  0  0  0  0  0  0  0
   -2.7928   -0.9358   -1.0282 H   0  0  0  0  0  0  0  0  0  0  0  0
   -2.3651   -1.7224    0.5102 H   0  0  0  0  0  0  0  0  0  0  0  0
   -3.2144   -0.1582    0.5164 H   0  0  0  0  0  0  0  0  0  0  0  0
    2.3004   -1.8419    0.0024 H   0  0  0  0  0  0  0  0  0  0  0  0
    3.0362   -0.4884   -0.8891 H   0  0  0  0  0  0  0  0  0  0  0  0
    3.0356   -0.4861    0.8909 H   0  0  0  0  0  0  0  0  0  0  0  0
  1  2  1  0  0  0  0
  1  3  2  0  0  0  0
  1  4  1  0  0  0  0
  4  5  1  0  0  0  0
  5  6  1  0  0  0  0
  5  7  2  0  0  0  0
  2  8  1  0  0  0  0
  2  9  1  0  0  0  0
  2 10  1  0  0  0  0
  6 11  1  0  0  0  0
  6 12  1  0  0  0  0
  6 13  1  0  0  0  0
M  END
$$$$
