C13H9N
APtclcactv12071713243D 0   0.00000     0.00000
 
 23 25  0  0  0  0  0  0  0  0999 V2000
   -2.4458   -1.4042   -0.0002 C   0  0  0  0  0  0  0  0  0  0  0  0
   -3.5860   -0.6656   -0.0000 C   0  0  0  0  0  0  0  0  0  0  0  0
   -3.5529    0.7286    0.0001 C   0  0  0  0  0  0  0  0  0  0  0  0
   -2.3827    1.4171    0.0001 C   0  0  0  0  0  0  0  0  0  0  0  0
   -1.1588    0.7141    0.0004 C   0  0  0  0  0  0  0  0  0  0  0  0
   -0.0000    1.3637   -0.0001 N   0  0  0  0  0  0  0  0  0  0  0  0
    1.1588    0.7141   -0.0002 C   0  0  0  0  0  0  0  0  0  0  0  0
    2.3827    1.4171   -0.0002 C   0  0  0  0  0  0  0  0  0  0  0  0
    3.5529    0.7286    0.0001 C   0  0  0  0  0  0  0  0  0  0  0  0
    3.5860   -0.6656    0.0004 C   0  0  0  0  0  0  0  0  0  0  0  0
    2.4458   -1.4042   -0.0000 C   0  0  0  0  0  0  0  0  0  0  0  0
    1.1964   -0.7517    0.0001 C   0  0  0  0  0  0  0  0  0  0  0  0
    0.0000   -1.4732   -0.0007 C   0  0  0  0  0  0  0  0  0  0  0  0
   -1.1964   -0.7517    0.0003 C   0  0  0  0  0  0  0  0  0  0  0  0
   -2.4963   -2.4830    0.0038 H   0  0  0  0  0  0  0  0  0  0  0  0
   -4.5409   -1.1702   -0.0004 H   0  0  0  0  0  0  0  0  0  0  0  0
   -4.4840    1.2759   -0.0002 H   0  0  0  0  0  0  0  0  0  0  0  0
   -2.3883    2.4971   -0.0006 H   0  0  0  0  0  0  0  0  0  0  0  0
    2.3882    2.4971   -0.0008 H   0  0  0  0  0  0  0  0  0  0  0  0
    4.4840    1.2759   -0.0003 H   0  0  0  0  0  0  0  0  0  0  0  0
    4.5409   -1.1702    0.0007 H   0  0  0  0  0  0  0  0  0  0  0  0
    2.4963   -2.4830   -0.0005 H   0  0  0  0  0  0  0  0  0  0  0  0
   -0.0000   -2.5532   -0.0015 H   0  0  0  0  0  0  0  0  0  0  0  0
  1  2  2  0  0  0  0
  2  3  1  0  0  0  0
  3  4  2  0  0  0  0
  4  5  1  0  0  0  0
  5  6  2  0  0  0  0
  6  7  1  0  0  0  0
  7  8  2  0  0  0  0
  8  9  1  0  0  0  0
  9 10  2  0  0  0  0
 10 11  1  0  0  0  0
 11 12  2  0  0  0  0
  7 12  1  0  0  0  0
 12 13  1  0  0  0  0
 13 14  2  0  0  0  0
  1 14  1  0  0  0  0
  5 14  1  0  0  0  0
  1 15  1  0  0  0  0
  2 16  1  0  0  0  0
  3 17  1  0  0  0  0
  4 18  1  0  0  0  0
  8 19  1  0  0  0  0
  9 20  1  0  0  0  0
 10 21  1  0  0  0  0
 11 22  1  0  0  0  0
 13 23  1  0  0  0  0
M  END
$$$$
