C3H3N
APtclcactv12101715353D 0   0.00000     0.00000
 
  7  6  0  0  0  0  0  0  0  0999 V2000
   -0.6871   -0.1135   -0.0001 C   0  0  0  0  0  0  0  0  0  0  0  0
    0.6856   -0.5215   -0.0005 C   0  0  0  0  0  0  0  0  0  0  0  0
    1.6516    0.3934    0.0001 C   0  0  0  0  0  0  0  0  0  0  0  0
   -1.7760    0.2102    0.0001 N   0  0  0  0  0  0  0  0  0  0  0  0
    0.9366   -1.5720    0.0033 H   0  0  0  0  0  0  0  0  0  0  0  0
    1.4005    1.4438    0.0008 H   0  0  0  0  0  0  0  0  0  0  0  0
    2.6868    0.0856   -0.0001 H   0  0  0  0  0  0  0  0  0  0  0  0
  1  2  1  0  0  0  0
  2  3  2  0  0  0  0
  1  4  3  0  0  0  0
  2  5  1  0  0  0  0
  3  6  1  0  0  0  0
  3  7  1  0  0  0  0
M  END
$$$$
