C6H10O4
APtclcactv12211716563D 0   0.00000     0.00000
 
 20 19  0  0  0  0  0  0  0  0999 V2000
    3.1337    0.0212   -0.0016 C   0  0  0  0  0  0  0  0  0  0  0  0
    1.8005   -0.6815   -0.0017 C   0  0  0  0  0  0  0  0  0  0  0  0
    0.6767    0.3567   -0.0006 C   0  0  0  0  0  0  0  0  0  0  0  0
   -0.6767   -0.3567   -0.0007 C   0  0  0  0  0  0  0  0  0  0  0  0
   -1.8005    0.6815    0.0004 C   0  0  0  0  0  0  0  0  0  0  0  0
   -3.1337   -0.0212    0.0003 C   0  0  0  0  0  0  0  0  0  0  0  0
   -3.1802   -1.2285   -0.0006 O   0  0  0  0  0  0  0  0  0  0  0  0
   -4.2694    0.6942    0.0012 O   0  0  0  0  0  0  0  0  0  0  0  0
    3.1802    1.2285   -0.0007 O   0  0  0  0  0  0  0  0  0  0  0  0
    4.2694   -0.6942    0.0031 O   0  0  0  0  0  0  0  0  0  0  0  0
    1.7184   -1.3048   -0.8922 H   0  0  0  0  0  0  0  0  0  0  0  0
    1.7190   -1.3062    0.8878 H   0  0  0  0  0  0  0  0  0  0  0  0
    0.7588    0.9800    0.8898 H   0  0  0  0  0  0  0  0  0  0  0  0
    0.7583    0.9814   -0.8901 H   0  0  0  0  0  0  0  0  0  0  0  0
   -0.7588   -0.9800   -0.8911 H   0  0  0  0  0  0  0  0  0  0  0  0
   -0.7583   -0.9814    0.8888 H   0  0  0  0  0  0  0  0  0  0  0  0
   -1.7184    1.3048    0.8909 H   0  0  0  0  0  0  0  0  0  0  0  0
   -1.7190    1.3062   -0.8891 H   0  0  0  0  0  0  0  0  0  0  0  0
   -5.1001    0.1991    0.0011 H   0  0  0  0  0  0  0  0  0  0  0  0
    5.1001   -0.1991    0.0029 H   0  0  0  0  0  0  0  0  0  0  0  0
  1  2  1  0  0  0  0
  2  3  1  0  0  0  0
  3  4  1  0  0  0  0
  4  5  1  0  0  0  0
  5  6  1  0  0  0  0
  6  7  2  0  0  0  0
  6  8  1  0  0  0  0
  1  9  2  0  0  0  0
  1 10  1  0  0  0  0
  2 11  1  0  0  0  0
  2 12  1  0  0  0  0
  3 13  1  0  0  0  0
  3 14  1  0  0  0  0
  4 15  1  0  0  0  0
  4 16  1  0  0  0  0
  5 17  1  0  0  0  0
  5 18  1  0  0  0  0
  8 19  1  0  0  0  0
 10 20  1  0  0  0  0
M  END
$$$$
