C12H15N3O3S
APtclcactv12111705003D 0   0.00000     0.00000
 
 34 35  0  0  0  0  0  0  0  0999 V2000
   -1.8231    1.8042   -0.2444 C   0  0  0  0  0  0  0  0  0  0  0  0
   -0.7649   -0.1859    0.5836 C   0  0  0  0  0  0  0  0  0  0  0  0
   -0.6082    2.2997   -0.6624 C   0  0  0  0  0  0  0  0  0  0  0  0
   -4.0554   -0.9655   -0.5467 C   0  0  0  0  0  0  0  0  0  0  0  0
   -5.4273   -1.5720   -0.2448 C   0  0  0  0  0  0  0  0  0  0  0  0
   -5.9235   -2.3452   -1.4683 C   0  0  0  0  0  0  0  0  0  0  0  0
    6.5211   -1.8139    0.3372 C   0  0  0  0  0  0  0  0  0  0  0  0
    2.0363   -1.0437    0.6045 H   0  0  0  0  0  0  0  0  0  0  0  0
    4.4538    1.3295   -0.9108 H   0  0  0  0  0  0  0  0  0  0  0  0
   -1.9027    0.5666    0.3762 C   0  0  0  0  0  0  0  0  0  0  0  0
    2.5733    0.7384   -0.3497 C   0  0  0  0  0  0  0  0  0  0  0  0
    3.9390   -1.3729    0.4919 O   0  0  0  0  0  0  0  0  0  0  0  0
   -4.2390    1.1337    1.0620 O   0  0  0  0  0  0  0  0  0  0  0  0
    4.5755   -0.4834   -0.0370 C   0  0  0  0  0  0  0  0  0  0  0  0
    5.9099   -0.5992   -0.1721 O   0  0  0  0  0  0  0  0  0  0  0  0
    3.9456    0.6193   -0.4886 N   0  0  0  0  0  0  0  0  0  0  0  0
    1.8634    1.7617   -0.7512 N   0  0  0  0  0  0  0  0  0  0  0  0
    0.5533    1.5505   -0.4600 C   0  0  0  0  0  0  0  0  0  0  0  0
    0.4669    0.2972    0.1693 C   0  0  0  0  0  0  0  0  0  0  0  0
    1.7599   -0.1944    0.2260 N   0  0  0  0  0  0  0  0  0  0  0  0
   -3.4671   -0.0489    0.9039 S   0  0  0  0  0  0  0  0  0  0  0  0
   -2.7202    2.3858   -0.3970 H   0  0  0  0  0  0  0  0  0  0  0  0
   -0.8336   -1.1490    1.0675 H   0  0  0  0  0  0  0  0  0  0  0  0
   -0.5536    3.2642   -1.1454 H   0  0  0  0  0  0  0  0  0  0  0  0
   -3.3502   -1.7621   -0.7837 H   0  0  0  0  0  0  0  0  0  0  0  0
   -4.1369   -0.2876   -1.3963 H   0  0  0  0  0  0  0  0  0  0  0  0
   -5.3458   -2.2499    0.6049 H   0  0  0  0  0  0  0  0  0  0  0  0
   -6.1325   -0.7754   -0.0078 H   0  0  0  0  0  0  0  0  0  0  0  0
   -6.9008   -2.7772   -1.2532 H   0  0  0  0  0  0  0  0  0  0  0  0
   -6.0049   -1.6673   -2.3180 H   0  0  0  0  0  0  0  0  0  0  0  0
   -5.2182   -3.1417   -1.7053 H   0  0  0  0  0  0  0  0  0  0  0  0
    6.3266   -1.8978    1.4064 H   0  0  0  0  0  0  0  0  0  0  0  0
    6.0986   -2.6767   -0.1778 H   0  0  0  0  0  0  0  0  0  0  0  0
    7.5969   -1.7790    0.1652 H   0  0  0  0  0  0  0  0  0  0  0  0
  1 10  2  0  0  0  0
  1  3  1  0  0  0  0
  2 10  1  0  0  0  0
 10 21  1  0  0  0  0
  2 19  2  0  0  0  0
  3 18  2  0  0  0  0
 11 20  1  0  0  0  0
 19 20  1  0  0  0  0
 11 17  2  0  0  0  0
 11 16  1  0  0  0  0
 17 18  1  0  0  0  0
 18 19  1  0  0  0  0
 14 16  1  0  0  0  0
 12 14  2  0  0  0  0
 14 15  1  0  0  0  0
 13 21  2  0  0  0  0
  4 21  1  0  0  0  0
  4  5  1  0  0  0  0
  5  6  1  0  0  0  0
  7 15  1  0  0  0  0
  1 22  1  0  0  0  0
  2 23  1  0  0  0  0
  3 24  1  0  0  0  0
  8 20  1  0  0  0  0
  9 16  1  0  0  0  0
  4 25  1  0  0  0  0
  4 26  1  0  0  0  0
  5 27  1  0  0  0  0
  5 28  1  0  0  0  0
  6 29  1  0  0  0  0
  6 30  1  0  0  0  0
  6 31  1  0  0  0  0
  7 32  1  0  0  0  0
  7 33  1  0  0  0  0
  7 34  1  0  0  0  0
M  END
$$$$
