C12H15N3O2S
APtclcactv12111705003D 0   0.00000     0.00000
 
 33 34  0  0  0  0  0  0  0  0999 V2000
   -0.7969   -0.8652    0.0002 C   0  0  0  0  0  0  0  0  0  0  0  0
   -2.1335    1.1408    0.0003 C   0  0  0  0  0  0  0  0  0  0  0  0
   -1.0073    1.9136   -0.0002 C   0  0  0  0  0  0  0  0  0  0  0  0
   -4.8252    0.0138    0.0001 C   0  0  0  0  0  0  0  0  0  0  0  0
   -6.1849   -0.6878   -0.0003 C   0  0  0  0  0  0  0  0  0  0  0  0
    6.6651   -1.2340   -0.0002 C   0  0  0  0  0  0  0  0  0  0  0  0
   -7.2996    0.3603   -0.0001 C   0  0  0  0  0  0  0  0  0  0  0  0
    4.1535    1.8326   -0.0001 H   0  0  0  0  0  0  0  0  0  0  0  0
    2.1052   -1.2642    0.0001 H   0  0  0  0  0  0  0  0  0  0  0  0
    2.3760    0.8108    0.0000 C   0  0  0  0  0  0  0  0  0  0  0  0
   -2.0389   -0.2496    0.0003 C   0  0  0  0  0  0  0  0  0  0  0  0
    4.0410   -1.2533   -0.0000 O   0  0  0  0  0  0  0  0  0  0  0  0
    4.5409   -0.1460   -0.0001 C   0  0  0  0  0  0  0  0  0  0  0  0
    5.8806   -0.0122   -0.0002 O   0  0  0  0  0  0  0  0  0  0  0  0
    3.7544    0.9485   -0.0001 N   0  0  0  0  0  0  0  0  0  0  0  0
    1.5222    1.8016    0.0000 N   0  0  0  0  0  0  0  0  0  0  0  0
   -3.5037   -1.2288   -0.0002 S   0  0  0  0  0  0  0  0  0  0  0  0
    0.3530   -0.0899    0.0002 C   0  0  0  0  0  0  0  0  0  0  0  0
    0.2535    1.3113    0.0001 C   0  0  0  0  0  0  0  0  0  0  0  0
    1.7064   -0.3800    0.0001 N   0  0  0  0  0  0  0  0  0  0  0  0
   -4.7379    0.6373   -0.8897 H   0  0  0  0  0  0  0  0  0  0  0  0
   -4.7381    0.6367    0.8902 H   0  0  0  0  0  0  0  0  0  0  0  0
   -6.2721   -1.3107   -0.8905 H   0  0  0  0  0  0  0  0  0  0  0  0
   -6.2723   -1.3113    0.8895 H   0  0  0  0  0  0  0  0  0  0  0  0
    7.7261   -0.9846   -0.0002 H   0  0  0  0  0  0  0  0  0  0  0  0
    6.4291   -1.8174    0.8898 H   0  0  0  0  0  0  0  0  0  0  0  0
    6.4290   -1.8174   -0.8901 H   0  0  0  0  0  0  0  0  0  0  0  0
   -8.2682   -0.1395   -0.0004 H   0  0  0  0  0  0  0  0  0  0  0  0
   -7.2124    0.9832    0.8901 H   0  0  0  0  0  0  0  0  0  0  0  0
   -7.2122    0.9838   -0.8899 H   0  0  0  0  0  0  0  0  0  0  0  0
   -0.7251   -1.9428    0.0048 H   0  0  0  0  0  0  0  0  0  0  0  0
   -3.1057    1.6112    0.0007 H   0  0  0  0  0  0  0  0  0  0  0  0
   -1.0914    2.9904   -0.0003 H   0  0  0  0  0  0  0  0  0  0  0  0
  4 17  1  0  0  0  0
 11 17  1  0  0  0  0
  6 14  1  0  0  0  0
 13 14  1  0  0  0  0
 12 13  2  0  0  0  0
 13 15  1  0  0  0  0
 10 15  1  0  0  0  0
  8 15  1  0  0  0  0
 10 20  1  0  0  0  0
 18 20  1  0  0  0  0
  9 20  1  0  0  0  0
 10 16  2  0  0  0  0
 16 19  1  0  0  0  0
  4  5  1  0  0  0  0
  4 21  1  0  0  0  0
  4 22  1  0  0  0  0
  5  7  1  0  0  0  0
  5 23  1  0  0  0  0
  5 24  1  0  0  0  0
  6 25  1  0  0  0  0
  6 26  1  0  0  0  0
  6 27  1  0  0  0  0
  7 28  1  0  0  0  0
  7 29  1  0  0  0  0
  7 30  1  0  0  0  0
  1 11  2  0  0  0  0
  2 11  1  0  0  0  0
 18 19  2  0  0  0  0
  1 18  1  0  0  0  0
  3 19  1  0  0  0  0
  1 31  1  0  0  0  0
  2  3  2  0  0  0  0
  2 32  1  0  0  0  0
  3 33  1  0  0  0  0
M  END
$$$$
