C11H11ClO3
APtclcactv12211717323D 0   0.00000     0.00000
 
 26 26  0  0  0  0  0  0  0  0999 V2000
   -1.0674    0.9767    0.4728 C   0  0  0  0  0  0  0  0  0  0  0  0
   -0.8569   -1.4070    0.5976 C   0  0  0  0  0  0  0  0  0  0  0  0
    0.4918   -1.3059    0.3135 C   0  0  0  0  0  0  0  0  0  0  0  0
   -3.1060   -0.3814    0.9861 C   0  0  0  0  0  0  0  0  0  0  0  0
    3.1355   -1.1760   -0.2371 C   0  0  0  0  0  0  0  0  0  0  0  0
   -1.6355   -0.2675    0.6767 C   0  0  0  0  0  0  0  0  0  0  0  0
    0.2810    1.0836    0.1888 C   0  0  0  0  0  0  0  0  0  0  0  0
    1.0647   -0.0599    0.1085 C   0  0  0  0  0  0  0  0  0  0  0  0
   -3.2987   -0.5206   -1.3581 O   0  0  0  0  0  0  0  0  0  0  0  0
   -5.2177   -0.6334   -0.2681 O   0  0  0  0  0  0  0  0  0  0  0  0
   -3.8808   -0.5169   -0.2993 C   0  0  0  0  0  0  0  0  0  0  0  0
    2.3912    0.0421   -0.1701 O   0  0  0  0  0  0  0  0  0  0  0  0
   -5.6710   -0.7178   -1.1180 H   0  0  0  0  0  0  0  0  0  0  0  0
    0.9939    2.6455   -0.0677 Cl  0  0  0  0  0  0  0  0  0  0  0  0
    4.5762   -0.8675   -0.5536 C   0  0  0  0  0  0  0  0  0  0  0  0
    5.5349   -1.4618    0.1125 C   0  0  0  0  0  0  0  0  0  0  0  0
   -1.6787    1.8652    0.5311 H   0  0  0  0  0  0  0  0  0  0  0  0
   -1.3031   -2.3773    0.7576 H   0  0  0  0  0  0  0  0  0  0  0  0
   -3.2793   -1.2589    1.6091 H   0  0  0  0  0  0  0  0  0  0  0  0
   -3.4358    0.5118    1.5167 H   0  0  0  0  0  0  0  0  0  0  0  0
    1.0993   -2.1967    0.2520 H   0  0  0  0  0  0  0  0  0  0  0  0
    3.0763   -1.6911    0.7216 H   0  0  0  0  0  0  0  0  0  0  0  0
    2.7203   -1.8130   -1.0181 H   0  0  0  0  0  0  0  0  0  0  0  0
    4.8183   -0.1565   -1.3297 H   0  0  0  0  0  0  0  0  0  0  0  0
    5.2928   -2.1728    0.8885 H   0  0  0  0  0  0  0  0  0  0  0  0
    6.5674   -1.2408   -0.1143 H   0  0  0  0  0  0  0  0  0  0  0  0
  1  6  1  0  0  0  0
  2  6  2  0  0  0  0
  4  6  1  0  0  0  0
  1  7  2  0  0  0  0
  2  3  1  0  0  0  0
  4 11  1  0  0  0  0
  7  8  1  0  0  0  0
  7 14  1  0  0  0  0
 10 11  1  0  0  0  0
  9 11  2  0  0  0  0
  8 12  1  0  0  0  0
  5 12  1  0  0  0  0
  5 15  1  0  0  0  0
 15 16  2  0  0  0  0
  3  8  2  0  0  0  0
  1 17  1  0  0  0  0
  2 18  1  0  0  0  0
  4 19  1  0  0  0  0
  4 20  1  0  0  0  0
  3 21  1  0  0  0  0
 10 13  1  0  0  0  0
  5 22  1  0  0  0  0
  5 23  1  0  0  0  0
 15 24  1  0  0  0  0
 16 25  1  0  0  0  0
 16 26  1  0  0  0  0
M  END
$$$$
