C8H12ClNO
APtclcactv12151716333D 0   0.00000     0.00000
 
 23 22  0  0  0  0  0  0  0  0999 V2000
   -1.6478    0.8689    0.7156 C   0  0  0  0  0  0  0  0  0  0  0  0
   -1.0429   -1.1409   -0.7103 C   0  0  0  0  0  0  0  0  0  0  0  0
    1.7128   -0.5205   -0.4806 C   0  0  0  0  0  0  0  0  0  0  0  0
    1.0087    1.3114    0.8301 O   0  0  0  0  0  0  0  0  0  0  0  0
    0.6712    0.3406    0.1863 C   0  0  0  0  0  0  0  0  0  0  0  0
    3.3526    0.1466   -0.1389 Cl  0  0  0  0  0  0  0  0  0  0  0  0
   -2.0785    1.9598   -0.2306 C   0  0  0  0  0  0  0  0  0  0  0  0
   -1.0991   -2.3470    0.1915 C   0  0  0  0  0  0  0  0  0  0  0  0
   -3.3464    2.1094   -0.5242 C   0  0  0  0  0  0  0  0  0  0  0  0
   -2.1980   -3.0559    0.2695 C   0  0  0  0  0  0  0  0  0  0  0  0
   -0.6353    0.0318    0.0673 N   0  0  0  0  0  0  0  0  0  0  0  0
   -1.2276    1.3148    1.6171 H   0  0  0  0  0  0  0  0  0  0  0  0
   -2.5098    0.2567    0.9809 H   0  0  0  0  0  0  0  0  0  0  0  0
   -0.3210   -1.3169   -1.5078 H   0  0  0  0  0  0  0  0  0  0  0  0
   -2.0275   -0.9652   -1.1438 H   0  0  0  0  0  0  0  0  0  0  0  0
    1.6461   -1.5371   -0.0931 H   0  0  0  0  0  0  0  0  0  0  0  0
    1.5414   -0.5300   -1.5570 H   0  0  0  0  0  0  0  0  0  0  0  0
   -1.3420    2.6184   -0.6667 H   0  0  0  0  0  0  0  0  0  0  0  0
   -0.2335   -2.6268    0.7735 H   0  0  0  0  0  0  0  0  0  0  0  0
   -3.6551    2.8912   -1.2023 H   0  0  0  0  0  0  0  0  0  0  0  0
   -4.0830    1.4509   -0.0881 H   0  0  0  0  0  0  0  0  0  0  0  0
   -2.2382   -3.9202    0.9158 H   0  0  0  0  0  0  0  0  0  0  0  0
   -3.0636   -2.7760   -0.3125 H   0  0  0  0  0  0  0  0  0  0  0  0
  5 11  1  0  0  0  0
  1 11  1  0  0  0  0
  2 11  1  0  0  0  0
  3  5  1  0  0  0  0
  4  5  2  0  0  0  0
  1  7  1  0  0  0  0
  2  8  1  0  0  0  0
  3  6  1  0  0  0  0
  7  9  2  0  0  0  0
  8 10  2  0  0  0  0
  1 12  1  0  0  0  0
  1 13  1  0  0  0  0
  2 14  1  0  0  0  0
  2 15  1  0  0  0  0
  3 16  1  0  0  0  0
  3 17  1  0  0  0  0
  7 18  1  0  0  0  0
  8 19  1  0  0  0  0
  9 20  1  0  0  0  0
  9 21  1  0  0  0  0
 10 22  1  0  0  0  0
 10 23  1  0  0  0  0
M  END
$$$$
