C6H10OS2
APtclcactv12211716563D 0   0.00000     0.00000
 
 19 18  0  0  0  0  0  0  0  0999 V2000
    4.2058   -0.1726   -0.0325 C   0  0  0  0  0  0  0  0  0  0  0  0
    3.1417   -0.5660    0.6223 C   0  0  0  0  0  0  0  0  0  0  0  0
    1.9668    0.3646    0.7796 C   0  0  0  0  0  0  0  0  0  0  0  0
    0.5342   -0.3160   -0.1005 S   0  0  0  0  0  0  0  0  0  0  0  0
   -0.9239    1.0843    0.2396 S   0  0  0  0  0  0  0  0  0  0  0  0
   -2.3566    0.4036   -0.6406 C   0  0  0  0  0  0  0  0  0  0  0  0
   -2.8561   -0.8200    0.0834 C   0  0  0  0  0  0  0  0  0  0  0  0
   -4.0449   -0.8159    0.6337 C   0  0  0  0  0  0  0  0  0  0  0  0
    0.7495   -0.2195   -1.5018 O   0  0  0  0  0  0  0  0  0  0  0  0
    4.2412    0.8187   -0.4597 H   0  0  0  0  0  0  0  0  0  0  0  0
    5.0495   -0.8380   -0.1414 H   0  0  0  0  0  0  0  0  0  0  0  0
    3.1063   -1.5573    1.0495 H   0  0  0  0  0  0  0  0  0  0  0  0
    1.7266    0.4708    1.8375 H   0  0  0  0  0  0  0  0  0  0  0  0
    2.2183    1.3406    0.3644 H   0  0  0  0  0  0  0  0  0  0  0  0
   -3.1485    1.1516   -0.6789 H   0  0  0  0  0  0  0  0  0  0  0  0
   -2.0644    0.1316   -1.6548 H   0  0  0  0  0  0  0  0  0  0  0  0
   -2.2340   -1.7004    0.1487 H   0  0  0  0  0  0  0  0  0  0  0  0
   -4.6671    0.0645    0.5685 H   0  0  0  0  0  0  0  0  0  0  0  0
   -4.4029   -1.6928    1.1526 H   0  0  0  0  0  0  0  0  0  0  0  0
  1  2  2  0  0  0  0
  2  3  1  0  0  0  0
  3  4  1  0  0  0  0
  4  5  1  0  0  0  0
  5  6  1  0  0  0  0
  6  7  1  0  0  0  0
  7  8  2  0  0  0  0
  4  9  2  0  0  0  0
  1 10  1  0  0  0  0
  1 11  1  0  0  0  0
  2 12  1  0  0  0  0
  3 13  1  0  0  0  0
  3 14  1  0  0  0  0
  6 15  1  0  0  0  0
  6 16  1  0  0  0  0
  7 17  1  0  0  0  0
  8 18  1  0  0  0  0
  8 19  1  0  0  0  0
M  END
$$$$
