C8H6N4O8
APtclcactv12151716263D 0   0.00000     0.00000
 
 26 27  0  0  0  0  0  0  0  0999 V2000
    1.6044   -2.0235    1.8860 H   0  0  0  0  0  0  0  0  0  0  0  0
    3.4206   -0.2250   -1.1793 H   0  0  0  0  0  0  0  0  0  0  0  0
   -3.4210   -0.2274    1.1784 H   0  0  0  0  0  0  0  0  0  0  0  0
   -1.6060   -2.0149   -1.8940 H   0  0  0  0  0  0  0  0  0  0  0  0
    1.5500    2.1410    1.6321 H   0  0  0  0  0  0  0  0  0  0  0  0
   -1.5308    2.1205   -1.6658 H   0  0  0  0  0  0  0  0  0  0  0  0
   -0.2441   -0.4383    2.2077 O   0  0  0  0  0  0  0  0  0  0  0  0
   -1.9081    1.6897    1.4425 O   0  0  0  0  0  0  0  0  0  0  0  0
    3.4153   -2.0613    0.3385 O   0  0  0  0  0  0  0  0  0  0  0  0
   -3.4140   -2.0606   -0.3431 O   0  0  0  0  0  0  0  0  0  0  0  0
    0.2433   -0.4294   -2.2096 O   0  0  0  0  0  0  0  0  0  0  0  0
    1.9115    1.6965   -1.4328 O   0  0  0  0  0  0  0  0  0  0  0  0
    0.7244    2.0259    1.1420 O   0  0  0  0  0  0  0  0  0  0  0  0
   -0.7263    2.0289   -1.1372 O   0  0  0  0  0  0  0  0  0  0  0  0
    2.5723   -1.1867    0.3522 C   0  0  0  0  0  0  0  0  0  0  0  0
    1.7987    0.8136   -0.6097 C   0  0  0  0  0  0  0  0  0  0  0  0
    0.6266   -0.3471    1.3692 C   0  0  0  0  0  0  0  0  0  0  0  0
   -1.7986    0.8125    0.6129 C   0  0  0  0  0  0  0  0  0  0  0  0
   -2.5734   -1.1835   -0.3568 C   0  0  0  0  0  0  0  0  0  0  0  0
   -0.6274   -0.3410   -1.3707 C   0  0  0  0  0  0  0  0  0  0  0  0
    0.6585    0.8120    0.3910 C   0  0  0  0  0  0  0  0  0  0  0  0
   -0.6584    0.8141   -0.3878 C   0  0  0  0  0  0  0  0  0  0  0  0
    1.6041   -1.2730    1.2715 N   0  0  0  0  0  0  0  0  0  0  0  0
    2.6828   -0.2047   -0.5498 N   0  0  0  0  0  0  0  0  0  0  0  0
   -2.6835   -0.2049    0.5488 N   0  0  0  0  0  0  0  0  0  0  0  0
   -1.6055   -1.2666   -1.2768 N   0  0  0  0  0  0  0  0  0  0  0  0
 15 23  1  0  0  0  0
 17 23  1  0  0  0  0
 15 24  1  0  0  0  0
  9 15  2  0  0  0  0
 16 24  1  0  0  0  0
 16 21  1  0  0  0  0
 12 16  2  0  0  0  0
 17 21  1  0  0  0  0
 21 22  1  0  0  0  0
 13 21  1  0  0  0  0
  7 17  2  0  0  0  0
 18 22  1  0  0  0  0
 20 22  1  0  0  0  0
 14 22  1  0  0  0  0
 18 25  1  0  0  0  0
  8 18  2  0  0  0  0
 19 25  1  0  0  0  0
 19 26  1  0  0  0  0
 10 19  2  0  0  0  0
 20 26  1  0  0  0  0
 11 20  2  0  0  0  0
  1 23  1  0  0  0  0
  2 24  1  0  0  0  0
  3 25  1  0  0  0  0
  4 26  1  0  0  0  0
  5 13  1  0  0  0  0
  6 14  1  0  0  0  0
M  END
$$$$
