C5H4N4O
APtclcactv12211716413D 0   0.00000     0.00000
 
 14 15  0  0  0  0  0  0  0  0999 V2000
   -3.3374   -0.8489    0.0013 H   0  0  0  0  0  0  0  0  0  0  0  0
   -2.5976    1.5753    0.0010 H   0  0  0  0  0  0  0  0  0  0  0  0
    1.6928   -1.9041   -0.0012 O   0  0  0  0  0  0  0  0  0  0  0  0
    1.2426   -0.7691   -0.0011 C   0  0  0  0  0  0  0  0  0  0  0  0
   -1.3304   -1.3277    0.0003 C   0  0  0  0  0  0  0  0  0  0  0  0
    1.5607    1.5217   -0.0016 C   0  0  0  0  0  0  0  0  0  0  0  0
   -0.2047   -0.5227   -0.0006 C   0  0  0  0  0  0  0  0  0  0  0  0
   -0.6419    0.8291   -0.0007 C   0  0  0  0  0  0  0  0  0  0  0  0
   -2.4181   -0.5394    0.0009 N   0  0  0  0  0  0  0  0  0  0  0  0
   -2.0119    0.8021    0.0003 N   0  0  0  0  0  0  0  0  0  0  0  0
    0.2680    1.7906   -0.0011 N   0  0  0  0  0  0  0  0  0  0  0  0
    2.0527    0.3035    0.0041 N   0  0  0  0  0  0  0  0  0  0  0  0
   -1.3338   -2.4077    0.0006 H   0  0  0  0  0  0  0  0  0  0  0  0
    2.2532    2.3504    0.0027 H   0  0  0  0  0  0  0  0  0  0  0  0
  3  4  2  0  0  0  0
  9 10  1  0  0  0  0
  5  9  1  0  0  0  0
  1  9  1  0  0  0  0
  8 10  1  0  0  0  0
  2 10  1  0  0  0  0
  4 12  1  0  0  0  0
  6 12  2  0  0  0  0
  8 11  2  0  0  0  0
  6 11  1  0  0  0  0
  5  7  2  0  0  0  0
  5 13  1  0  0  0  0
  4  7  1  0  0  0  0
  7  8  1  0  0  0  0
  6 14  1  0  0  0  0
M  END
$$$$
