C4H5NS
APtclcactv12211716373D 0   0.00000     0.00000
 
 11 10  0  0  0  0  0  0  0  0999 V2000
   -1.1333    0.3665   -0.5265 C   0  0  0  0  0  0  0  0  0  0  0  0
   -2.2028   -0.5280    0.0455 C   0  0  0  0  0  0  0  0  0  0  0  0
   -3.4511   -0.1308    0.0582 C   0  0  0  0  0  0  0  0  0  0  0  0
   -0.0819    0.5711    0.4729 N   0  0  0  0  0  0  0  0  0  0  0  0
    1.0921    0.2201    0.2258 C   0  0  0  0  0  0  0  0  0  0  0  0
    2.5512   -0.2161   -0.0813 S   0  0  0  0  0  0  0  0  0  0  0  0
   -0.7055   -0.1003   -1.4137 H   0  0  0  0  0  0  0  0  0  0  0  0
   -1.5700    1.3280   -0.7966 H   0  0  0  0  0  0  0  0  0  0  0  0
   -1.9402   -1.4964    0.4450 H   0  0  0  0  0  0  0  0  0  0  0  0
   -4.2176   -0.7718    0.4681 H   0  0  0  0  0  0  0  0  0  0  0  0
   -3.7138    0.8376   -0.3413 H   0  0  0  0  0  0  0  0  0  0  0  0
  1  2  1  0  0  0  0
  2  3  2  0  0  0  0
  1  4  1  0  0  0  0
  4  5  2  0  0  0  0
  5  6  2  0  0  0  0
  1  7  1  0  0  0  0
  1  8  1  0  0  0  0
  2  9  1  0  0  0  0
  3 10  1  0  0  0  0
  3 11  1  0  0  0  0
M  END
$$$$
