C9H18N6
APtclcactv12151716513D 0   0.00000     0.00000
 
 33 33  0  0  0  0  0  0  0  0999 V2000
    0.8494   -3.5686   -0.0052 C   0  0  0  0  0  0  0  0  0  0  0  0
   -1.6699   -3.2662    0.0004 C   0  0  0  0  0  0  0  0  0  0  0  0
    3.6636    0.1869    0.0020 C   0  0  0  0  0  0  0  0  0  0  0  0
    2.6658    2.5199   -0.0019 C   0  0  0  0  0  0  0  0  0  0  0  0
   -3.5153    1.0487    0.0010 C   0  0  0  0  0  0  0  0  0  0  0  0
   -1.9936    3.0793   -0.0026 C   0  0  0  0  0  0  0  0  0  0  0  0
   -0.1585   -1.3199    0.0033 C   0  0  0  0  0  0  0  0  0  0  0  0
    1.2223    0.5227    0.0006 C   0  0  0  0  0  0  0  0  0  0  0  0
   -1.0638    0.7972    0.0003 C   0  0  0  0  0  0  0  0  0  0  0  0
    1.0638   -0.7972    0.0025 N   0  0  0  0  0  0  0  0  0  0  0  0
   -1.2223   -0.5227    0.0022 N   0  0  0  0  0  0  0  0  0  0  0  0
    0.1585    1.3199   -0.0006 N   0  0  0  0  0  0  0  0  0  0  0  0
   -0.3230   -2.6901   -0.0004 N   0  0  0  0  0  0  0  0  0  0  0  0
    2.4912    1.0654    0.0002 N   0  0  0  0  0  0  0  0  0  0  0  0
   -2.1683    1.6248   -0.0004 N   0  0  0  0  0  0  0  0  0  0  0  0
    1.1421   -3.7895    1.0212 H   0  0  0  0  0  0  0  0  0  0  0  0
    0.6055   -4.4972   -0.5214 H   0  0  0  0  0  0  0  0  0  0  0  0
    1.6729   -3.0728   -0.5192 H   0  0  0  0  0  0  0  0  0  0  0  0
   -2.4081   -2.4642    0.0042 H   0  0  0  0  0  0  0  0  0  0  0  0
   -1.8037   -3.8789   -0.8911 H   0  0  0  0  0  0  0  0  0  0  0  0
   -1.8003   -3.8841    0.8888 H   0  0  0  0  0  0  0  0  0  0  0  0
    3.6466   -0.4435   -0.8870 H   0  0  0  0  0  0  0  0  0  0  0  0
    4.5706    0.7914    0.0014 H   0  0  0  0  0  0  0  0  0  0  0  0
    3.6459   -0.4408    0.8929 H   0  0  0  0  0  0  0  0  0  0  0  0
    2.7088    2.8822    1.0252 H   0  0  0  0  0  0  0  0  0  0  0  0
    3.5930    2.7738   -0.5158 H   0  0  0  0  0  0  0  0  0  0  0  0
    1.8257    2.9860   -0.5167 H   0  0  0  0  0  0  0  0  0  0  0  0
   -3.8489    0.9073    1.0290 H   0  0  0  0  0  0  0  0  0  0  0  0
   -4.1995    1.7234   -0.5135 H   0  0  0  0  0  0  0  0  0  0  0  0
   -3.4996    0.0868   -0.5115 H   0  0  0  0  0  0  0  0  0  0  0  0
   -0.9300    3.3176   -0.0034 H   0  0  0  0  0  0  0  0  0  0  0  0
   -2.4609    3.5000   -0.8930 H   0  0  0  0  0  0  0  0  0  0  0  0
   -2.4601    3.5026    0.8870 H   0  0  0  0  0  0  0  0  0  0  0  0
  7 10  1  0  0  0  0
  7 11  2  0  0  0  0
  7 13  1  0  0  0  0
  8 10  2  0  0  0  0
  9 11  1  0  0  0  0
  1 13  1  0  0  0  0
  2 13  1  0  0  0  0
  8 12  1  0  0  0  0
  8 14  1  0  0  0  0
  9 15  1  0  0  0  0
  3 14  1  0  0  0  0
  4 14  1  0  0  0  0
  5 15  1  0  0  0  0
  6 15  1  0  0  0  0
  9 12  2  0  0  0  0
  1 16  1  0  0  0  0
  1 17  1  0  0  0  0
  1 18  1  0  0  0  0
  2 19  1  0  0  0  0
  2 20  1  0  0  0  0
  2 21  1  0  0  0  0
  3 22  1  0  0  0  0
  3 23  1  0  0  0  0
  3 24  1  0  0  0  0
  4 25  1  0  0  0  0
  4 26  1  0  0  0  0
  4 27  1  0  0  0  0
  5 28  1  0  0  0  0
  5 29  1  0  0  0  0
  5 30  1  0  0  0  0
  6 31  1  0  0  0  0
  6 32  1  0  0  0  0
  6 33  1  0  0  0  0
M  END
$$$$
