C9H17N5S
APtclcactv12151716513D 0   0.00000     0.00000
 
 32 32  0  0  0  0  0  0  0  0999 V2000
    3.6189    1.2295   -0.0603 C   0  0  0  0  0  0  0  0  0  0  0  0
    2.2638   -2.9825    0.0482 C   0  0  0  0  0  0  0  0  0  0  0  0
   -4.7327    1.1522    0.7741 C   0  0  0  0  0  0  0  0  0  0  0  0
   -3.9359   -0.0265   -1.2797 C   0  0  0  0  0  0  0  0  0  0  0  0
    4.6588    2.3509   -0.1069 C   0  0  0  0  0  0  0  0  0  0  0  0
   -2.4974    2.2349    0.0865 H   0  0  0  0  0  0  0  0  0  0  0  0
    2.1623    2.7743   -0.0512 H   0  0  0  0  0  0  0  0  0  0  0  0
   -1.1195    0.7230    0.0686 C   0  0  0  0  0  0  0  0  0  0  0  0
    1.1673    0.9879    0.0062 C   0  0  0  0  0  0  0  0  0  0  0  0
    0.2542   -1.1253    0.0665 C   0  0  0  0  0  0  0  0  0  0  0  0
   -3.5612    0.3982    0.1417 C   0  0  0  0  0  0  0  0  0  0  0  0
   -0.0526    1.5156    0.0277 N   0  0  0  0  0  0  0  0  0  0  0  0
   -0.9664   -0.5970    0.0880 N   0  0  0  0  0  0  0  0  0  0  0  0
    1.3210   -0.3323    0.0256 N   0  0  0  0  0  0  0  0  0  0  0  0
   -2.3857    1.2714    0.0966 N   0  0  0  0  0  0  0  0  0  0  0  0
    2.2744    1.8109   -0.0367 N   0  0  0  0  0  0  0  0  0  0  0  0
    0.4575   -2.8753    0.0917 S   0  0  0  0  0  0  0  0  0  0  0  0
   -3.3344   -0.4861    0.7372 H   0  0  0  0  0  0  0  0  0  0  0  0
    3.7261    0.5978   -0.9421 H   0  0  0  0  0  0  0  0  0  0  0  0
    3.7713    0.6298    0.8370 H   0  0  0  0  0  0  0  0  0  0  0  0
    2.6789   -2.4758    0.9194 H   0  0  0  0  0  0  0  0  0  0  0  0
    2.5659   -4.0298    0.0588 H   0  0  0  0  0  0  0  0  0  0  0  0
    2.6342   -2.5066   -0.8597 H   0  0  0  0  0  0  0  0  0  0  0  0
   -4.9596    2.0365    0.1786 H   0  0  0  0  0  0  0  0  0  0  0  0
   -5.6073    0.5025    0.8077 H   0  0  0  0  0  0  0  0  0  0  0  0
   -4.4658    1.4548    1.7867 H   0  0  0  0  0  0  0  0  0  0  0  0
   -4.1627    0.8578   -1.8752 H   0  0  0  0  0  0  0  0  0  0  0  0
   -3.1013   -0.5637   -1.7302 H   0  0  0  0  0  0  0  0  0  0  0  0
   -4.8104   -0.6762   -1.2461 H   0  0  0  0  0  0  0  0  0  0  0  0
    5.6591    1.9183   -0.1245 H   0  0  0  0  0  0  0  0  0  0  0  0
    4.5064    2.9506   -1.0043 H   0  0  0  0  0  0  0  0  0  0  0  0
    4.5516    2.9826    0.7749 H   0  0  0  0  0  0  0  0  0  0  0  0
 10 17  1  0  0  0  0
  2 17  1  0  0  0  0
  8 12  1  0  0  0  0
  9 12  2  0  0  0  0
  8 13  2  0  0  0  0
 10 13  1  0  0  0  0
  9 14  1  0  0  0  0
 10 14  2  0  0  0  0
  8 15  1  0  0  0  0
 11 15  1  0  0  0  0
  9 16  1  0  0  0  0
  1 16  1  0  0  0  0
  3 11  1  0  0  0  0
  4 11  1  0  0  0  0
  1  5  1  0  0  0  0
  6 15  1  0  0  0  0
  7 16  1  0  0  0  0
 11 18  1  0  0  0  0
  1 19  1  0  0  0  0
  1 20  1  0  0  0  0
  2 21  1  0  0  0  0
  2 22  1  0  0  0  0
  2 23  1  0  0  0  0
  3 24  1  0  0  0  0
  3 25  1  0  0  0  0
  3 26  1  0  0  0  0
  4 27  1  0  0  0  0
  4 28  1  0  0  0  0
  4 29  1  0  0  0  0
  5 30  1  0  0  0  0
  5 31  1  0  0  0  0
  5 32  1  0  0  0  0
M  END
$$$$
