C11H16N2O2
APtclcactv12211717353D 0   0.00000     0.00000
 
 31 31  0  0  0  0  0  0  0  0999 V2000
   -0.0998    0.8410    0.6424 C   0  0  0  0  0  0  0  0  0  0  0  0
    0.1440   -1.5194    0.2640 C   0  0  0  0  0  0  0  0  0  0  0  0
    1.4817   -1.3361   -0.0246 C   0  0  0  0  0  0  0  0  0  0  0  0
   -5.1415    0.3294   -0.7145 C   0  0  0  0  0  0  0  0  0  0  0  0
    1.8354    2.4090    0.4038 C   0  0  0  0  0  0  0  0  0  0  0  0
    4.2360   -0.6354    0.6574 C   0  0  0  0  0  0  0  0  0  0  0  0
    3.6816   -0.2343   -1.6652 C   0  0  0  0  0  0  0  0  0  0  0  0
   -4.4839   -0.5483    1.1035 H   0  0  0  0  0  0  0  0  0  0  0  0
   -0.6495   -0.4315    0.5976 C   0  0  0  0  0  0  0  0  0  0  0  0
    1.2382    1.0263    0.3545 C   0  0  0  0  0  0  0  0  0  0  0  0
    2.0331   -0.0620    0.0201 C   0  0  0  0  0  0  0  0  0  0  0  0
   -2.4687    0.3160   -1.0710 O   0  0  0  0  0  0  0  0  0  0  0  0
   -2.8559   -0.1431   -0.0146 C   0  0  0  0  0  0  0  0  0  0  0  0
   -1.9673   -0.6130    0.8814 O   0  0  0  0  0  0  0  0  0  0  0  0
   -4.1748   -0.1819    0.2603 N   0  0  0  0  0  0  0  0  0  0  0  0
    3.3885    0.1246   -0.2712 N   0  0  0  0  0  0  0  0  0  0  0  0
   -0.7193    1.6879    0.8982 H   0  0  0  0  0  0  0  0  0  0  0  0
   -0.2849   -2.5100    0.2294 H   0  0  0  0  0  0  0  0  0  0  0  0
   -4.9430    1.3842   -0.9042 H   0  0  0  0  0  0  0  0  0  0  0  0
   -5.0499   -0.2306   -1.6452 H   0  0  0  0  0  0  0  0  0  0  0  0
   -6.1510    0.2150   -0.3195 H   0  0  0  0  0  0  0  0  0  0  0  0
    2.0992   -2.1831   -0.2846 H   0  0  0  0  0  0  0  0  0  0  0  0
    2.2116    2.6067    1.4076 H   0  0  0  0  0  0  0  0  0  0  0  0
    2.6553    2.4764   -0.3113 H   0  0  0  0  0  0  0  0  0  0  0  0
    1.0713    3.1440    0.1508 H   0  0  0  0  0  0  0  0  0  0  0  0
    4.0038   -1.6972    0.5751 H   0  0  0  0  0  0  0  0  0  0  0  0
    5.2846   -0.4724    0.4084 H   0  0  0  0  0  0  0  0  0  0  0  0
    4.0484   -0.3004    1.6775 H   0  0  0  0  0  0  0  0  0  0  0  0
    3.0910    0.3923   -2.3336 H   0  0  0  0  0  0  0  0  0  0  0  0
    4.7420   -0.0799   -1.8649 H   0  0  0  0  0  0  0  0  0  0  0  0
    3.4293   -1.2816   -1.8316 H   0  0  0  0  0  0  0  0  0  0  0  0
 13 14  1  0  0  0  0
  9 14  1  0  0  0  0
 13 15  1  0  0  0  0
 12 13  2  0  0  0  0
  1  9  2  0  0  0  0
  2  9  1  0  0  0  0
  4 15  1  0  0  0  0
  1 10  1  0  0  0  0
  2  3  2  0  0  0  0
  5 10  1  0  0  0  0
 10 11  2  0  0  0  0
  3 11  1  0  0  0  0
 11 16  1  0  0  0  0
  6 16  1  0  0  0  0
  7 16  1  0  0  0  0
  8 15  1  0  0  0  0
  1 17  1  0  0  0  0
  2 18  1  0  0  0  0
  4 19  1  0  0  0  0
  4 20  1  0  0  0  0
  4 21  1  0  0  0  0
  3 22  1  0  0  0  0
  5 23  1  0  0  0  0
  5 24  1  0  0  0  0
  5 25  1  0  0  0  0
  6 26  1  0  0  0  0
  6 27  1  0  0  0  0
  6 28  1  0  0  0  0
  7 29  1  0  0  0  0
  7 30  1  0  0  0  0
  7 31  1  0  0  0  0
M  END
$$$$
