C3H4N4O2
APtclcactv12101715363D 0   0.00000     0.00000
 
 13 13  0  0  0  0  0  0  0  0999 V2000
    2.3316   -0.1012   -0.0032 H   0  0  0  0  0  0  0  0  0  0  0  0
   -1.0704    2.0342    0.0048 H   0  0  0  0  0  0  0  0  0  0  0  0
   -3.1974   -0.7770   -0.0040 H   0  0  0  0  0  0  0  0  0  0  0  0
   -3.1521    0.9025   -0.0009 H   0  0  0  0  0  0  0  0  0  0  0  0
    1.2063   -2.2749    0.0003 O   0  0  0  0  0  0  0  0  0  0  0  0
    1.3844    2.1640   -0.0016 O   0  0  0  0  0  0  0  0  0  0  0  0
    0.6394   -1.1969    0.0013 C   0  0  0  0  0  0  0  0  0  0  0  0
    0.7375    1.1349    0.0001 C   0  0  0  0  0  0  0  0  0  0  0  0
   -1.3265    0.0129    0.0004 C   0  0  0  0  0  0  0  0  0  0  0  0
   -2.6899    0.0497   -0.0017 N   0  0  0  0  0  0  0  0  0  0  0  0
    1.3625   -0.0601   -0.0010 N   0  0  0  0  0  0  0  0  0  0  0  0
   -0.6108    1.1800    0.0036 N   0  0  0  0  0  0  0  0  0  0  0  0
   -0.6977   -1.1488   -0.0007 N   0  0  0  0  0  0  0  0  0  0  0  0
  5  7  2  0  0  0  0
  6  8  2  0  0  0  0
  7 11  1  0  0  0  0
  8 11  1  0  0  0  0
  7 13  1  0  0  0  0
  9 13  2  0  0  0  0
  8 12  1  0  0  0  0
  9 12  1  0  0  0  0
  9 10  1  0  0  0  0
  1 11  1  0  0  0  0
  2 12  1  0  0  0  0
  3 10  1  0  0  0  0
  4 10  1  0  0  0  0
M  END
$$$$
