C3H5N5O
APtclcactv12101715363D 0   0.00000     0.00000
 
 14 14  0  0  0  0  0  0  0  0999 V2000
    0.0000    2.2744    0.0051 H   0  0  0  0  0  0  0  0  0  0  0  0
    3.2059    0.7973   -0.0046 H   0  0  0  0  0  0  0  0  0  0  0  0
    2.3777    2.2590   -0.0010 H   0  0  0  0  0  0  0  0  0  0  0  0
   -3.2059    0.7974   -0.0040 H   0  0  0  0  0  0  0  0  0  0  0  0
   -2.3776    2.2591   -0.0008 H   0  0  0  0  0  0  0  0  0  0  0  0
   -0.0000   -2.5901    0.0001 O   0  0  0  0  0  0  0  0  0  0  0  0
   -0.0000   -1.3689    0.0013 C   0  0  0  0  0  0  0  0  0  0  0  0
    1.1799    0.6149    0.0005 C   0  0  0  0  0  0  0  0  0  0  0  0
   -1.1799    0.6149    0.0002 C   0  0  0  0  0  0  0  0  0  0  0  0
    2.3698    1.2891   -0.0019 N   0  0  0  0  0  0  0  0  0  0  0  0
   -2.3698    1.2891   -0.0017 N   0  0  0  0  0  0  0  0  0  0  0  0
    0.0000    1.3044    0.0038 N   0  0  0  0  0  0  0  0  0  0  0  0
    1.1656   -0.7044   -0.0007 N   0  0  0  0  0  0  0  0  0  0  0  0
   -1.1656   -0.7044   -0.0010 N   0  0  0  0  0  0  0  0  0  0  0  0
  6  7  2  0  0  0  0
  7 13  1  0  0  0  0
  8 13  2  0  0  0  0
  7 14  1  0  0  0  0
  9 14  2  0  0  0  0
  8 12  1  0  0  0  0
  9 12  1  0  0  0  0
  8 10  1  0  0  0  0
  9 11  1  0  0  0  0
  1 12  1  0  0  0  0
  2 10  1  0  0  0  0
  3 10  1  0  0  0  0
  4 11  1  0  0  0  0
  5 11  1  0  0  0  0
M  END
$$$$
