C11H18N2O3
APtclcactv12111704483D 0   0.00000     0.00000
 
 34 34  0  0  0  0  0  0  0  0999 V2000
    1.0621   -1.0138   -0.3664 C   0  0  0  0  0  0  0  0  0  0  0  0
   -1.1010   -2.2085   -0.2770 C   0  0  0  0  0  0  0  0  0  0  0  0
    1.7675    0.3316   -0.1839 C   0  0  0  0  0  0  0  0  0  0  0  0
   -2.6009   -2.0810   -0.0034 C   0  0  0  0  0  0  0  0  0  0  0  0
    3.9650    1.5123   -0.3222 C   0  0  0  0  0  0  0  0  0  0  0  0
    3.8271   -0.7518    0.7252 C   0  0  0  0  0  0  0  0  0  0  0  0
   -1.4816    1.2287    2.2497 H   0  0  0  0  0  0  0  0  0  0  0  0
   -1.9323    1.7514   -1.6814 H   0  0  0  0  0  0  0  0  0  0  0  0
   -0.2999   -0.9242    2.2075 O   0  0  0  0  0  0  0  0  0  0  0  0
   -0.8307   -0.3013   -2.4602 O   0  0  0  0  0  0  0  0  0  0  0  0
   -2.3209    2.6162    0.5042 O   0  0  0  0  0  0  0  0  0  0  0  0
   -0.6760   -0.3058    1.2349 C   0  0  0  0  0  0  0  0  0  0  0  0
   -0.9671    0.0315   -1.3024 C   0  0  0  0  0  0  0  0  0  0  0  0
   -1.7482    1.5647    0.2988 C   0  0  0  0  0  0  0  0  0  0  0  0
    3.2737    0.1487   -0.3810 C   0  0  0  0  0  0  0  0  0  0  0  0
   -0.4440   -0.8309   -0.1693 C   0  0  0  0  0  0  0  0  0  0  0  0
   -1.3217    0.8729    1.3616 N   0  0  0  0  0  0  0  0  0  0  0  0
   -1.5897    1.1833   -0.9738 N   0  0  0  0  0  0  0  0  0  0  0  0
    1.2539   -1.3913   -1.3708 H   0  0  0  0  0  0  0  0  0  0  0  0
    1.4409   -1.7251    0.3676 H   0  0  0  0  0  0  0  0  0  0  0  0
   -0.6543   -2.8822    0.4541 H   0  0  0  0  0  0  0  0  0  0  0  0
   -0.9472   -2.6069   -1.2799 H   0  0  0  0  0  0  0  0  0  0  0  0
    1.3887    1.0429   -0.9178 H   0  0  0  0  0  0  0  0  0  0  0  0
    1.5757    0.7091    0.8205 H   0  0  0  0  0  0  0  0  0  0  0  0
   -2.7548   -1.6825    0.9994 H   0  0  0  0  0  0  0  0  0  0  0  0
   -3.0477   -1.4072   -0.7346 H   0  0  0  0  0  0  0  0  0  0  0  0
   -3.0690   -3.0624   -0.0802 H   0  0  0  0  0  0  0  0  0  0  0  0
    3.4599   -0.3115   -1.3513 H   0  0  0  0  0  0  0  0  0  0  0  0
    3.7788    1.9726    0.6482 H   0  0  0  0  0  0  0  0  0  0  0  0
    5.0380    1.3820   -0.4626 H   0  0  0  0  0  0  0  0  0  0  0  0
    3.5707    2.1539   -1.1103 H   0  0  0  0  0  0  0  0  0  0  0  0
    4.9002   -0.8821    0.5848 H   0  0  0  0  0  0  0  0  0  0  0  0
    3.6409   -0.2916    1.6956 H   0  0  0  0  0  0  0  0  0  0  0  0
    3.3346   -1.7233    0.6833 H   0  0  0  0  0  0  0  0  0  0  0  0
 12 16  1  0  0  0  0
 13 16  1  0  0  0  0
  1 16  1  0  0  0  0
  2 16  1  0  0  0  0
 12 17  1  0  0  0  0
  9 12  2  0  0  0  0
 13 18  1  0  0  0  0
 10 13  2  0  0  0  0
  1  3  1  0  0  0  0
  2  4  1  0  0  0  0
 14 17  1  0  0  0  0
  3 15  1  0  0  0  0
 11 14  2  0  0  0  0
  5 15  1  0  0  0  0
  6 15  1  0  0  0  0
 14 18  1  0  0  0  0
  1 19  1  0  0  0  0
  1 20  1  0  0  0  0
  2 21  1  0  0  0  0
  2 22  1  0  0  0  0
  7 17  1  0  0  0  0
  3 23  1  0  0  0  0
  3 24  1  0  0  0  0
  4 25  1  0  0  0  0
  4 26  1  0  0  0  0
  4 27  1  0  0  0  0
 15 28  1  0  0  0  0
  5 29  1  0  0  0  0
  5 30  1  0  0  0  0
  5 31  1  0  0  0  0
  6 32  1  0  0  0  0
  6 33  1  0  0  0  0
  6 34  1  0  0  0  0
  8 18  1  0  0  0  0
M  END
$$$$
