C8H16O3
APtclcactv12151716373D 0   0.00000     0.00000
 
 27 26  0  0  0  0  0  0  0  0999 V2000
   -1.7974    0.3098    0.0810 C   0  0  0  0  0  0  0  0  0  0  0  0
   -3.0953   -0.3929    0.3857 C   0  0  0  0  0  0  0  0  0  0  0  0
   -4.1809    0.5231    0.2300 O   0  0  0  0  0  0  0  0  0  0  0  0
   -3.2773   -1.5680   -0.5771 C   0  0  0  0  0  0  0  0  0  0  0  0
   -1.8074    1.4482   -0.3239 O   0  0  0  0  0  0  0  0  0  0  0  0
   -0.6302   -0.3270    0.2646 O   0  0  0  0  0  0  0  0  0  0  0  0
    0.5800    0.4112   -0.0496 C   0  0  0  0  0  0  0  0  0  0  0  0
    1.8004   -0.4713    0.2206 C   0  0  0  0  0  0  0  0  0  0  0  0
    3.0756    0.3066   -0.1104 C   0  0  0  0  0  0  0  0  0  0  0  0
    4.2959   -0.5759    0.1597 C   0  0  0  0  0  0  0  0  0  0  0  0
    5.5711    0.2020   -0.1713 C   0  0  0  0  0  0  0  0  0  0  0  0
   -3.0761   -0.7627    1.4109 H   0  0  0  0  0  0  0  0  0  0  0  0
   -4.2589    0.8930   -0.6601 H   0  0  0  0  0  0  0  0  0  0  0  0
   -2.4492   -2.2667   -0.4582 H   0  0  0  0  0  0  0  0  0  0  0  0
   -4.2160   -2.0762   -0.3566 H   0  0  0  0  0  0  0  0  0  0  0  0
   -3.2964   -1.1981   -1.6022 H   0  0  0  0  0  0  0  0  0  0  0  0
    0.5666    0.7009   -1.1003 H   0  0  0  0  0  0  0  0  0  0  0  0
    0.6327    1.3044    0.5729 H   0  0  0  0  0  0  0  0  0  0  0  0
    1.8138   -0.7609    1.2713 H   0  0  0  0  0  0  0  0  0  0  0  0
    1.7477   -1.3645   -0.4019 H   0  0  0  0  0  0  0  0  0  0  0  0
    3.0621    0.5962   -1.1612 H   0  0  0  0  0  0  0  0  0  0  0  0
    3.1282    1.1998    0.5120 H   0  0  0  0  0  0  0  0  0  0  0  0
    4.3094   -0.8656    1.2104 H   0  0  0  0  0  0  0  0  0  0  0  0
    4.2433   -1.4691   -0.4628 H   0  0  0  0  0  0  0  0  0  0  0  0
    5.5576    0.4916   -1.2221 H   0  0  0  0  0  0  0  0  0  0  0  0
    5.6238    1.0952    0.4511 H   0  0  0  0  0  0  0  0  0  0  0  0
    6.4405   -0.4267    0.0211 H   0  0  0  0  0  0  0  0  0  0  0  0
  1  2  1  0  0  0  0
  2  3  1  0  0  0  0
  2  4  1  0  0  0  0
  1  5  2  0  0  0  0
  1  6  1  0  0  0  0
  6  7  1  0  0  0  0
  7  8  1  0  0  0  0
  8  9  1  0  0  0  0
  9 10  1  0  0  0  0
 10 11  1  0  0  0  0
  2 12  1  0  0  0  0
  3 13  1  0  0  0  0
  4 14  1  0  0  0  0
  4 15  1  0  0  0  0
  4 16  1  0  0  0  0
  7 17  1  0  0  0  0
  7 18  1  0  0  0  0
  8 19  1  0  0  0  0
  8 20  1  0  0  0  0
  9 21  1  0  0  0  0
  9 22  1  0  0  0  0
 10 23  1  0  0  0  0
 10 24  1  0  0  0  0
 11 25  1  0  0  0  0
 11 26  1  0  0  0  0
 11 27  1  0  0  0  0
M  END
$$$$
