C15H16N2O2
APtclcactv12211717073D 0   0.00000     0.00000
 
 35 37  0  0  0  0  0  0  0  0999 V2000
    0.9411    0.3197    1.0950 C   0  0  0  0  0  0  0  0  0  0  0  0
    1.5772   -0.6497   -1.0021 C   0  0  0  0  0  0  0  0  0  0  0  0
   -2.0523    1.1156   -1.2955 C   0  0  0  0  0  0  0  0  0  0  0  0
   -2.2943    0.7250    1.0407 C   0  0  0  0  0  0  0  0  0  0  0  0
    2.2426    0.7343    1.3011 C   0  0  0  0  0  0  0  0  0  0  0  0
    2.8800   -0.2367   -0.8008 C   0  0  0  0  0  0  0  0  0  0  0  0
   -3.3798    2.4645    0.0059 C   0  0  0  0  0  0  0  0  0  0  0  0
    5.4468    0.5435   -0.4657 C   0  0  0  0  0  0  0  0  0  0  0  0
   -0.7034   -0.8062   -2.3000 H   0  0  0  0  0  0  0  0  0  0  0  0
    0.6085   -0.3715   -0.0555 C   0  0  0  0  0  0  0  0  0  0  0  0
   -1.7374    0.3624   -0.1755 C   0  0  0  0  0  0  0  0  0  0  0  0
    3.2163    0.4568    0.3527 C   0  0  0  0  0  0  0  0  0  0  0  0
   -2.5550   -2.5374    0.6526 C   0  0  0  0  0  0  0  0  0  0  0  0
   -1.2777   -3.3209    0.3432 C   0  0  0  0  0  0  0  0  0  0  0  0
   -0.9284   -1.4072   -1.5766 O   0  0  0  0  0  0  0  0  0  0  0  0
    4.4973    0.8641    0.5530 O   0  0  0  0  0  0  0  0  0  0  0  0
   -1.1902   -1.8581    0.7832 C   0  0  0  0  0  0  0  0  0  0  0  0
   -2.8688    2.1491   -1.1673 N   0  0  0  0  0  0  0  0  0  0  0  0
   -3.1029    1.7713    1.0920 N   0  0  0  0  0  0  0  0  0  0  0  0
   -0.8120   -0.8227   -0.2778 C   0  0  0  0  0  0  0  0  0  0  0  0
   -0.8229   -1.6560    1.7893 H   0  0  0  0  0  0  0  0  0  0  0  0
   -3.1834   -2.2465   -0.1892 H   0  0  0  0  0  0  0  0  0  0  0  0
   -3.0853   -2.7824    1.5728 H   0  0  0  0  0  0  0  0  0  0  0  0
   -0.9678   -4.0814    1.0599 H   0  0  0  0  0  0  0  0  0  0  0  0
   -1.0659   -3.5455   -0.7021 H   0  0  0  0  0  0  0  0  0  0  0  0
    0.1837    0.5315    1.8351 H   0  0  0  0  0  0  0  0  0  0  0  0
    1.3150   -1.1900   -1.8997 H   0  0  0  0  0  0  0  0  0  0  0  0
   -1.6335    0.8652   -2.2590 H   0  0  0  0  0  0  0  0  0  0  0  0
   -2.0717    0.1610    1.9345 H   0  0  0  0  0  0  0  0  0  0  0  0
    2.5018    1.2744    2.1997 H   0  0  0  0  0  0  0  0  0  0  0  0
    3.6364   -0.4549   -1.5402 H   0  0  0  0  0  0  0  0  0  0  0  0
   -4.0433    3.3136    0.0791 H   0  0  0  0  0  0  0  0  0  0  0  0
    5.4989   -0.5386   -0.5862 H   0  0  0  0  0  0  0  0  0  0  0  0
    5.1382    0.9994   -1.4065 H   0  0  0  0  0  0  0  0  0  0  0  0
    6.4274    0.9251   -0.1815 H   0  0  0  0  0  0  0  0  0  0  0  0
 17 20  1  0  0  0  0
 10 20  1  0  0  0  0
 11 20  1  0  0  0  0
 15 20  1  0  0  0  0
 13 17  1  0  0  0  0
 14 17  1  0  0  0  0
  1 10  2  0  0  0  0
  2 10  1  0  0  0  0
  3 11  2  0  0  0  0
  4 11  1  0  0  0  0
  1  5  1  0  0  0  0
  2  6  2  0  0  0  0
  3 18  1  0  0  0  0
  4 19  2  0  0  0  0
  5 12  2  0  0  0  0
  7 18  2  0  0  0  0
 12 16  1  0  0  0  0
  8 16  1  0  0  0  0
 13 14  1  0  0  0  0
  6 12  1  0  0  0  0
  7 19  1  0  0  0  0
 17 21  1  0  0  0  0
  9 15  1  0  0  0  0
 13 22  1  0  0  0  0
 13 23  1  0  0  0  0
 14 24  1  0  0  0  0
 14 25  1  0  0  0  0
  1 26  1  0  0  0  0
  2 27  1  0  0  0  0
  3 28  1  0  0  0  0
  4 29  1  0  0  0  0
  5 30  1  0  0  0  0
  6 31  1  0  0  0  0
  7 32  1  0  0  0  0
  8 33  1  0  0  0  0
  8 34  1  0  0  0  0
  8 35  1  0  0  0  0
M  END
$$$$
