C9H5Cl3N4
APtclcactv12151716413D 0   0.00000     0.00000
 
 21 22  0  0  0  0  0  0  0  0999 V2000
    1.6944    1.2088    0.7942 C   0  0  0  0  0  0  0  0  0  0  0  0
    4.1950    0.3909   -0.0725 C   0  0  0  0  0  0  0  0  0  0  0  0
    2.7558    2.0924    0.8100 C   0  0  0  0  0  0  0  0  0  0  0  0
    4.0044    1.6843    0.3774 C   0  0  0  0  0  0  0  0  0  0  0  0
    0.9702   -1.9399    0.4267 H   0  0  0  0  0  0  0  0  0  0  0  0
   -0.4809   -0.5205    0.1665 C   0  0  0  0  0  0  0  0  0  0  0  0
    1.8815   -0.0912    0.3431 C   0  0  0  0  0  0  0  0  0  0  0  0
    3.1373   -0.4987   -0.0911 C   0  0  0  0  0  0  0  0  0  0  0  0
   -2.7444   -0.9039    0.1199 C   0  0  0  0  0  0  0  0  0  0  0  0
   -1.9313    1.2124   -0.2405 C   0  0  0  0  0  0  0  0  0  0  0  0
    3.3769   -2.1224   -0.6566 Cl  0  0  0  0  0  0  0  0  0  0  0  0
   -4.0895   -1.9927    0.2579 Cl  0  0  0  0  0  0  0  0  0  0  0  0
   -2.2127    2.8929   -0.5729 Cl  0  0  0  0  0  0  0  0  0  0  0  0
   -1.5110   -1.3553    0.2729 N   0  0  0  0  0  0  0  0  0  0  0  0
   -0.6956    0.7671   -0.0886 N   0  0  0  0  0  0  0  0  0  0  0  0
   -2.9547    0.3778   -0.1390 N   0  0  0  0  0  0  0  0  0  0  0  0
    0.8086   -0.9887    0.3262 N   0  0  0  0  0  0  0  0  0  0  0  0
    0.7209    1.5273    1.1365 H   0  0  0  0  0  0  0  0  0  0  0  0
    5.1713    0.0754   -0.4097 H   0  0  0  0  0  0  0  0  0  0  0  0
    2.6104    3.1036    1.1605 H   0  0  0  0  0  0  0  0  0  0  0  0
    4.8325    2.3775    0.3913 H   0  0  0  0  0  0  0  0  0  0  0  0
  6 17  1  0  0  0  0
  7 17  1  0  0  0  0
  6 14  2  0  0  0  0
  6 15  1  0  0  0  0
  7  8  2  0  0  0  0
  1  7  1  0  0  0  0
  9 14  1  0  0  0  0
 10 15  2  0  0  0  0
  8 11  1  0  0  0  0
  2  8  1  0  0  0  0
  1  3  2  0  0  0  0
  9 12  1  0  0  0  0
  9 16  2  0  0  0  0
 10 16  1  0  0  0  0
 10 13  1  0  0  0  0
  2  4  2  0  0  0  0
  3  4  1  0  0  0  0
  5 17  1  0  0  0  0
  1 18  1  0  0  0  0
  2 19  1  0  0  0  0
  3 20  1  0  0  0  0
  4 21  1  0  0  0  0
M  END
$$$$
