C6H7N
APtclcactv12211716543D 0   0.00000     0.00000
 
 14 14  0  0  0  0  0  0  0  0999 V2000
    2.3198    0.0000    0.0006 N   0  0  0  0  0  0  0  0  0  0  0  0
    0.9231    0.0000    0.0009 C   0  0  0  0  0  0  0  0  0  0  0  0
    0.2269    1.2021   -0.0004 C   0  0  0  0  0  0  0  0  0  0  0  0
   -1.1541    1.1985   -0.0006 C   0  0  0  0  0  0  0  0  0  0  0  0
   -1.8440   -0.0000    0.0005 C   0  0  0  0  0  0  0  0  0  0  0  0
   -1.1541   -1.1985    0.0018 C   0  0  0  0  0  0  0  0  0  0  0  0
    0.2269   -1.2021   -0.0033 C   0  0  0  0  0  0  0  0  0  0  0  0
    2.8048    0.8400   -0.0004 H   0  0  0  0  0  0  0  0  0  0  0  0
    2.8048   -0.8400    0.0056 H   0  0  0  0  0  0  0  0  0  0  0  0
    0.7651    2.1385   -0.0008 H   0  0  0  0  0  0  0  0  0  0  0  0
   -1.6959    2.1327   -0.0012 H   0  0  0  0  0  0  0  0  0  0  0  0
   -2.9240   -0.0000    0.0007 H   0  0  0  0  0  0  0  0  0  0  0  0
   -1.6959   -2.1327    0.0026 H   0  0  0  0  0  0  0  0  0  0  0  0
    0.7651   -2.1385   -0.0027 H   0  0  0  0  0  0  0  0  0  0  0  0
  1  2  1  0  0  0  0
  2  3  2  0  0  0  0
  3  4  1  0  0  0  0
  4  5  2  0  0  0  0
  5  6  1  0  0  0  0
  6  7  2  0  0  0  0
  2  7  1  0  0  0  0
  1  8  1  0  0  0  0
  1  9  1  0  0  0  0
  3 10  1  0  0  0  0
  4 11  1  0  0  0  0
  5 12  1  0  0  0  0
  6 13  1  0  0  0  0
  7 14  1  0  0  0  0
M  END
$$$$
