C10H12O3
APtclcactv12211717243D 0   0.00000     0.00000
 
 25 25  0  0  0  0  0  0  0  0999 V2000
    3.6050   -0.1721    0.2046 C   0  0  0  0  0  0  0  0  0  0  0  0
    4.4687   -0.5714    1.3732 C   0  0  0  0  0  0  0  0  0  0  0  0
    4.1136    0.1032   -0.8563 O   0  0  0  0  0  0  0  0  0  0  0  0
    2.2704   -0.1275    0.3407 O   0  0  0  0  0  0  0  0  0  0  0  0
    1.5015    0.2655   -0.8266 C   0  0  0  0  0  0  0  0  0  0  0  0
    0.0333    0.2585   -0.4867 C   0  0  0  0  0  0  0  0  0  0  0  0
   -0.5662    1.4023    0.0071 C   0  0  0  0  0  0  0  0  0  0  0  0
   -1.9119    1.3985    0.3195 C   0  0  0  0  0  0  0  0  0  0  0  0
   -2.6618    0.2456    0.1372 C   0  0  0  0  0  0  0  0  0  0  0  0
   -2.0579   -0.9008   -0.3584 C   0  0  0  0  0  0  0  0  0  0  0  0
   -0.7131   -0.8901   -0.6746 C   0  0  0  0  0  0  0  0  0  0  0  0
   -3.9857    0.2392    0.4442 O   0  0  0  0  0  0  0  0  0  0  0  0
   -4.6951   -0.9829    0.2311 C   0  0  0  0  0  0  0  0  0  0  0  0
    4.7434    0.3167    1.9422 H   0  0  0  0  0  0  0  0  0  0  0  0
    3.9166   -1.2579    2.0151 H   0  0  0  0  0  0  0  0  0  0  0  0
    5.3707   -1.0620    1.0074 H   0  0  0  0  0  0  0  0  0  0  0  0
    1.7979    1.2676   -1.1365 H   0  0  0  0  0  0  0  0  0  0  0  0
    1.6897   -0.4366   -1.6389 H   0  0  0  0  0  0  0  0  0  0  0  0
    0.0180    2.2995    0.1491 H   0  0  0  0  0  0  0  0  0  0  0  0
   -2.3797    2.2921    0.7055 H   0  0  0  0  0  0  0  0  0  0  0  0
   -2.6395   -1.7995   -0.5012 H   0  0  0  0  0  0  0  0  0  0  0  0
   -0.2425   -1.7823   -1.0604 H   0  0  0  0  0  0  0  0  0  0  0  0
   -4.6373   -1.2576   -0.8222 H   0  0  0  0  0  0  0  0  0  0  0  0
   -4.2501   -1.7718    0.8373 H   0  0  0  0  0  0  0  0  0  0  0  0
   -5.7391   -0.8513    0.5155 H   0  0  0  0  0  0  0  0  0  0  0  0
  1  2  1  0  0  0  0
  1  3  2  0  0  0  0
  1  4  1  0  0  0  0
  4  5  1  0  0  0  0
  5  6  1  0  0  0  0
  6  7  2  0  0  0  0
  7  8  1  0  0  0  0
  8  9  2  0  0  0  0
  9 10  1  0  0  0  0
 10 11  2  0  0  0  0
  6 11  1  0  0  0  0
  9 12  1  0  0  0  0
 12 13  1  0  0  0  0
  2 14  1  0  0  0  0
  2 15  1  0  0  0  0
  2 16  1  0  0  0  0
  5 17  1  0  0  0  0
  5 18  1  0  0  0  0
  7 19  1  0  0  0  0
  8 20  1  0  0  0  0
 10 21  1  0  0  0  0
 11 22  1  0  0  0  0
 13 23  1  0  0  0  0
 13 24  1  0  0  0  0
 13 25  1  0  0  0  0
M  END
$$$$
