C14H8O2
APtclcactv12091702553D 0   0.00000     0.00000
 
 24 26  0  0  0  0  0  0  0  0999 V2000
   -2.4746   -1.3934    0.1160 C   0  0  0  0  0  0  0  0  0  0  0  0
   -3.6596   -0.6914    0.2593 C   0  0  0  0  0  0  0  0  0  0  0  0
   -3.6599    0.6912    0.2571 C   0  0  0  0  0  0  0  0  0  0  0  0
   -2.4751    1.3933    0.1127 C   0  0  0  0  0  0  0  0  0  0  0  0
   -1.2762    0.7036   -0.0312 C   0  0  0  0  0  0  0  0  0  0  0  0
   -0.0001    1.4361   -0.1850 C   0  0  0  0  0  0  0  0  0  0  0  0
    1.2760    0.7038   -0.0303 C   0  0  0  0  0  0  0  0  0  0  0  0
    2.4745    1.3935    0.1166 C   0  0  0  0  0  0  0  0  0  0  0  0
    3.6595    0.6915    0.2596 C   0  0  0  0  0  0  0  0  0  0  0  0
    3.6599   -0.6911    0.2571 C   0  0  0  0  0  0  0  0  0  0  0  0
    2.4752   -1.3932    0.1120 C   0  0  0  0  0  0  0  0  0  0  0  0
    1.2762   -0.7036   -0.0314 C   0  0  0  0  0  0  0  0  0  0  0  0
    0.0001   -1.4362   -0.1850 C   0  0  0  0  0  0  0  0  0  0  0  0
   -1.2761   -0.7038   -0.0306 C   0  0  0  0  0  0  0  0  0  0  0  0
    0.0001   -2.6251   -0.4353 O   0  0  0  0  0  0  0  0  0  0  0  0
   -0.0000    2.6250   -0.4358 O   0  0  0  0  0  0  0  0  0  0  0  0
   -2.4807   -2.4734    0.1226 H   0  0  0  0  0  0  0  0  0  0  0  0
   -4.5901   -1.2277    0.3733 H   0  0  0  0  0  0  0  0  0  0  0  0
   -4.5908    1.2274    0.3684 H   0  0  0  0  0  0  0  0  0  0  0  0
   -2.4823    2.4732    0.1115 H   0  0  0  0  0  0  0  0  0  0  0  0
    2.4811    2.4735    0.1189 H   0  0  0  0  0  0  0  0  0  0  0  0
    4.5900    1.2277    0.3734 H   0  0  0  0  0  0  0  0  0  0  0  0
    4.5907   -1.2273    0.3688 H   0  0  0  0  0  0  0  0  0  0  0  0
    2.4824   -2.4732    0.1104 H   0  0  0  0  0  0  0  0  0  0  0  0
  1  2  2  0  0  0  0
  2  3  1  0  0  0  0
  3  4  2  0  0  0  0
  4  5  1  0  0  0  0
  5  6  1  0  0  0  0
  6  7  1  0  0  0  0
  7  8  2  0  0  0  0
  8  9  1  0  0  0  0
  9 10  2  0  0  0  0
 10 11  1  0  0  0  0
 11 12  2  0  0  0  0
  7 12  1  0  0  0  0
 12 13  1  0  0  0  0
 13 14  1  0  0  0  0
  1 14  1  0  0  0  0
  5 14  2  0  0  0  0
 13 15  2  0  0  0  0
  6 16  2  0  0  0  0
  1 17  1  0  0  0  0
  2 18  1  0  0  0  0
  3 19  1  0  0  0  0
  4 20  1  0  0  0  0
  8 21  1  0  0  0  0
  9 22  1  0  0  0  0
 10 23  1  0  0  0  0
 11 24  1  0  0  0  0
M  END
$$$$
