C12H6Cl4
APtclcactv12111704543D 0   0.00000     0.00000
 
 22 23  0  0  0  0  0  0  0  0999 V2000
    1.4262    1.5593    0.6792 C   0  0  0  0  0  0  0  0  0  0  0  0
   -1.4262    1.5593   -0.6792 C   0  0  0  0  0  0  0  0  0  0  0  0
    2.8364   -0.4696   -0.5823 C   0  0  0  0  0  0  0  0  0  0  0  0
    2.8057    1.5552    0.7067 C   0  0  0  0  0  0  0  0  0  0  0  0
   -2.8364   -0.4696    0.5823 C   0  0  0  0  0  0  0  0  0  0  0  0
   -2.8057    1.5552   -0.7067 C   0  0  0  0  0  0  0  0  0  0  0  0
    0.7416    0.5424    0.0165 C   0  0  0  0  0  0  0  0  0  0  0  0
   -0.7416    0.5424   -0.0165 C   0  0  0  0  0  0  0  0  0  0  0  0
    1.4555   -0.4750   -0.6159 C   0  0  0  0  0  0  0  0  0  0  0  0
   -1.4555   -0.4750    0.6159 C   0  0  0  0  0  0  0  0  0  0  0  0
    3.5106    0.5433    0.0770 C   0  0  0  0  0  0  0  0  0  0  0  0
   -3.5106    0.5433   -0.0770 C   0  0  0  0  0  0  0  0  0  0  0  0
    0.6105   -1.7453   -1.4442 Cl  0  0  0  0  0  0  0  0  0  0  0  0
   -0.6105   -1.7453    1.4442 Cl  0  0  0  0  0  0  0  0  0  0  0  0
    5.2462    0.5447    0.1158 Cl  0  0  0  0  0  0  0  0  0  0  0  0
   -5.2462    0.5447   -0.1158 Cl  0  0  0  0  0  0  0  0  0  0  0  0
    0.8778    2.3470    1.1743 H   0  0  0  0  0  0  0  0  0  0  0  0
   -0.8778    2.3470   -1.1743 H   0  0  0  0  0  0  0  0  0  0  0  0
    3.3908   -1.2568   -1.0716 H   0  0  0  0  0  0  0  0  0  0  0  0
    3.3368    2.3431    1.2202 H   0  0  0  0  0  0  0  0  0  0  0  0
   -3.3908   -1.2568    1.0716 H   0  0  0  0  0  0  0  0  0  0  0  0
   -3.3368    2.3431   -1.2202 H   0  0  0  0  0  0  0  0  0  0  0  0
  7  8  1  0  0  0  0
  7  9  2  0  0  0  0
  1  7  1  0  0  0  0
  8 10  2  0  0  0  0
  2  8  1  0  0  0  0
  3  9  1  0  0  0  0
  9 13  1  0  0  0  0
  1  4  2  0  0  0  0
  5 10  1  0  0  0  0
 10 14  1  0  0  0  0
  2  6  2  0  0  0  0
  3 11  2  0  0  0  0
  5 12  2  0  0  0  0
 11 15  1  0  0  0  0
 12 16  1  0  0  0  0
  4 11  1  0  0  0  0
  6 12  1  0  0  0  0
  1 17  1  0  0  0  0
  2 18  1  0  0  0  0
  3 19  1  0  0  0  0
  4 20  1  0  0  0  0
  5 21  1  0  0  0  0
  6 22  1  0  0  0  0
M  END
$$$$
