C12H4Cl6
APtclcactv12111704513D 0   0.00000     0.00000
 
 22 23  0  0  0  0  0  0  0  0999 V2000
    1.3502    1.8925    0.8197 C   0  0  0  0  0  0  0  0  0  0  0  0
   -1.3501    1.8928   -0.8192 C   0  0  0  0  0  0  0  0  0  0  0  0
    2.7203    1.8890    0.9868 C   0  0  0  0  0  0  0  0  0  0  0  0
   -2.7202    1.8891   -0.9866 C   0  0  0  0  0  0  0  0  0  0  0  0
    0.7362    0.8759    0.0914 C   0  0  0  0  0  0  0  0  0  0  0  0
   -0.7361    0.8759   -0.0910 C   0  0  0  0  0  0  0  0  0  0  0  0
    1.5102   -0.1416   -0.4659 C   0  0  0  0  0  0  0  0  0  0  0  0
   -1.5102   -0.1416    0.4662 C   0  0  0  0  0  0  0  0  0  0  0  0
    2.8813   -0.1362   -0.2931 C   0  0  0  0  0  0  0  0  0  0  0  0
   -2.8814   -0.1360    0.2933 C   0  0  0  0  0  0  0  0  0  0  0  0
    3.4856    0.8780    0.4319 C   0  0  0  0  0  0  0  0  0  0  0  0
   -3.4855    0.8779   -0.4323 C   0  0  0  0  0  0  0  0  0  0  0  0
    0.7529   -1.4125   -1.3744 Cl  0  0  0  0  0  0  0  0  0  0  0  0
   -0.7530   -1.4126    1.3744 Cl  0  0  0  0  0  0  0  0  0  0  0  0
    3.8476   -1.4013   -0.9856 Cl  0  0  0  0  0  0  0  0  0  0  0  0
   -3.8477   -1.4012    0.9855 Cl  0  0  0  0  0  0  0  0  0  0  0  0
    5.2084    0.8802    0.6462 Cl  0  0  0  0  0  0  0  0  0  0  0  0
   -5.2082    0.8802   -0.6466 Cl  0  0  0  0  0  0  0  0  0  0  0  0
    0.7544    2.6801    1.2569 H   0  0  0  0  0  0  0  0  0  0  0  0
   -0.7542    2.6804   -1.2562 H   0  0  0  0  0  0  0  0  0  0  0  0
    3.1963    2.6771    1.5513 H   0  0  0  0  0  0  0  0  0  0  0  0
   -3.1961    2.6774   -1.5510 H   0  0  0  0  0  0  0  0  0  0  0  0
  5  6  1  0  0  0  0
  5  7  1  0  0  0  0
  1  5  2  0  0  0  0
  6  8  1  0  0  0  0
  2  6  2  0  0  0  0
  7  9  2  0  0  0  0
  7 13  1  0  0  0  0
  1  3  1  0  0  0  0
  8 10  2  0  0  0  0
  8 14  1  0  0  0  0
  2  4  1  0  0  0  0
  9 11  1  0  0  0  0
  9 15  1  0  0  0  0
 10 12  1  0  0  0  0
 10 16  1  0  0  0  0
 11 17  1  0  0  0  0
 12 18  1  0  0  0  0
  3 11  2  0  0  0  0
  4 12  2  0  0  0  0
  1 19  1  0  0  0  0
  2 20  1  0  0  0  0
  3 21  1  0  0  0  0
  4 22  1  0  0  0  0
M  END
$$$$
