C2H5AsO5
APtclcactv12101715343D 0   0.00000     0.00000
 
 13 12  0  0  0  0  0  0  0  0999 V2000
   -0.7861   -0.0296   -0.0341 As  0  0  0  0  0  0  0  0  0  0  0  0
   -0.8248    0.5173   -1.5197 O   0  0  0  0  0  0  0  0  0  0  0  0
   -0.8680    1.3831    1.1419 O   0  0  0  0  0  0  0  0  0  0  0  0
   -2.2222   -1.1452    0.2463 O   0  0  0  0  0  0  0  0  0  0  0  0
    0.9043   -1.0384    0.2574 C   0  0  0  0  0  0  0  0  0  0  0  0
    2.0805   -0.1247    0.0277 C   0  0  0  0  0  0  0  0  0  0  0  0
    1.8980    1.0285   -0.2834 O   0  0  0  0  0  0  0  0  0  0  0  0
    3.3310   -0.5919    0.1687 O   0  0  0  0  0  0  0  0  0  0  0  0
   -0.8487    1.1216    2.0727 H   0  0  0  0  0  0  0  0  0  0  0  0
   -3.0813   -0.7194    0.1214 H   0  0  0  0  0  0  0  0  0  0  0  0
    0.9310   -1.4149    1.2800 H   0  0  0  0  0  0  0  0  0  0  0  0
    0.9529   -1.8752   -0.4393 H   0  0  0  0  0  0  0  0  0  0  0  0
    4.0530    0.0316    0.0109 H   0  0  0  0  0  0  0  0  0  0  0  0
  1  2  2  0  0  0  0
  1  3  1  0  0  0  0
  1  4  1  0  0  0  0
  1  5  1  0  0  0  0
  5  6  1  0  0  0  0
  6  7  2  0  0  0  0
  6  8  1  0  0  0  0
  3  9  1  0  0  0  0
  4 10  1  0  0  0  0
  5 11  1  0  0  0  0
  5 12  1  0  0  0  0
  8 13  1  0  0  0  0
M  END
$$$$
