C4H8N2O3
APtclcactv12211716393D 0   0.00000     0.00000
 
 17 16  0  0  1  0  0  0  0  0999 V2000
   -0.2934    1.6864    0.0942 N   0  0  0  0  0  0  0  0  0  0  0  0
   -0.4477    0.2915   -0.3398 C   0  0  1  0  0  0  0  0  0  0  0  0
   -0.2700    0.2231   -1.4130 H   0  0  0  0  0  0  0  0  0  0  0  0
    0.5615   -0.5879    0.4013 C   0  0  0  0  0  0  0  0  0  0  0  0
    1.9599   -0.1972   -0.0023 C   0  0  0  0  0  0  0  0  0  0  0  0
    3.0188   -0.8410    0.5274 N   0  0  0  0  0  0  0  0  0  0  0  0
    2.1324    0.6966   -0.8038 O   0  0  0  0  0  0  0  0  0  0  0  0
   -1.8458   -0.1789   -0.0312 C   0  0  0  0  0  0  0  0  0  0  0  0
   -2.5103    0.4022    0.7938 O   0  0  0  0  0  0  0  0  0  0  0  0
   -2.3527   -1.2433   -0.6728 O   0  0  0  0  0  0  0  0  0  0  0  0
   -0.9043    2.2970   -0.4272 H   0  0  0  0  0  0  0  0  0  0  0  0
   -0.4533    1.7761    1.0864 H   0  0  0  0  0  0  0  0  0  0  0  0
    0.4420   -0.4514    1.4761 H   0  0  0  0  0  0  0  0  0  0  0  0
    0.3885   -1.6334    0.1464 H   0  0  0  0  0  0  0  0  0  0  0  0
    2.8809   -1.5558    1.1684 H   0  0  0  0  0  0  0  0  0  0  0  0
    3.9189   -0.5895    0.2676 H   0  0  0  0  0  0  0  0  0  0  0  0
   -3.2536   -1.5075   -0.4411 H   0  0  0  0  0  0  0  0  0  0  0  0
  1  2  1  0  0  0  0
  2  3  1  0  0  0  0
  2  4  1  0  0  0  0
  4  5  1  0  0  0  0
  5  6  1  0  0  0  0
  5  7  2  0  0  0  0
  2  8  1  0  0  0  0
  8  9  2  0  0  0  0
  8 10  1  0  0  0  0
  1 11  1  0  0  0  0
  1 12  1  0  0  0  0
  4 13  1  0  0  0  0
  4 14  1  0  0  0  0
  6 15  1  0  0  0  0
  6 16  1  0  0  0  0
 10 17  1  0  0  0  0
M  END
$$$$
