C14H22N2O3
APtclcactv12211717043D 0   0.00000     0.00000
 
 41 41  0  0  0  0  0  0  0  0999 V2000
    2.0139   -1.5357    0.8624 C   0  0  0  0  0  0  0  0  0  0  0  0
    1.3515    0.6932    0.2617 C   0  0  0  0  0  0  0  0  0  0  0  0
    3.3301   -1.1222    0.9344 C   0  0  0  0  0  0  0  0  0  0  0  0
    2.6691    1.1018    0.3354 C   0  0  0  0  0  0  0  0  0  0  0  0
   -1.2447   -0.0437    0.1011 C   0  0  0  0  0  0  0  0  0  0  0  0
    5.0941    0.6434    0.7502 C   0  0  0  0  0  0  0  0  0  0  0  0
   -3.6868    0.4008   -0.1835 C   0  0  0  0  0  0  0  0  0  0  0  0
   -7.3363    0.1390   -0.8452 C   0  0  0  0  0  0  0  0  0  0  0  0
   -6.3739    1.5563    0.9734 C   0  0  0  0  0  0  0  0  0  0  0  0
   -2.5224   -1.2948   -1.8556 H   0  0  0  0  0  0  0  0  0  0  0  0
   -5.1652   -0.6439    0.7970 H   0  0  0  0  0  0  0  0  0  0  0  0
    7.5516    1.1663   -0.0195 H   0  0  0  0  0  0  0  0  0  0  0  0
    7.4624    0.7050   -1.6326 H   0  0  0  0  0  0  0  0  0  0  0  0
    1.0204   -0.6280    0.5256 C   0  0  0  0  0  0  0  0  0  0  0  0
    3.6575    0.1950    0.6710 C   0  0  0  0  0  0  0  0  0  0  0  0
    5.1103    0.0337   -1.5297 O   0  0  0  0  0  0  0  0  0  0  0  0
   -2.6907   -1.6543   -0.9739 O   0  0  0  0  0  0  0  0  0  0  0  0
    5.7480    0.4746   -0.5970 C   0  0  0  0  0  0  0  0  0  0  0  0
   -0.2751   -1.0323    0.4537 O   0  0  0  0  0  0  0  0  0  0  0  0
   -2.6353   -0.6811    0.0710 C   0  0  0  0  0  0  0  0  0  0  0  0
   -6.0665    0.8219   -0.3332 C   0  0  0  0  0  0  0  0  0  0  0  0
   -5.0288   -0.1899   -0.0937 N   0  0  0  0  0  0  0  0  0  0  0  0
    7.0415    0.8136   -0.7655 N   0  0  0  0  0  0  0  0  0  0  0  0
    1.7592   -2.5657    1.0639 H   0  0  0  0  0  0  0  0  0  0  0  0
    0.5798    1.4018   -0.0004 H   0  0  0  0  0  0  0  0  0  0  0  0
    4.1039   -1.8284    1.1970 H   0  0  0  0  0  0  0  0  0  0  0  0
    2.9274    2.1300    0.1298 H   0  0  0  0  0  0  0  0  0  0  0  0
   -1.2291    0.7595    0.8378 H   0  0  0  0  0  0  0  0  0  0  0  0
   -1.0093    0.3614   -0.8831 H   0  0  0  0  0  0  0  0  0  0  0  0
   -2.8347   -1.1635    1.0279 H   0  0  0  0  0  0  0  0  0  0  0  0
    5.1317    1.6925    1.0434 H   0  0  0  0  0  0  0  0  0  0  0  0
    5.6227    0.0405    1.4887 H   0  0  0  0  0  0  0  0  0  0  0  0
   -3.5859    1.1885    0.5631 H   0  0  0  0  0  0  0  0  0  0  0  0
   -3.5412    0.8222   -1.1782 H   0  0  0  0  0  0  0  0  0  0  0  0
   -5.7129    1.5361   -1.0768 H   0  0  0  0  0  0  0  0  0  0  0  0
   -7.6899   -0.5752   -0.1016 H   0  0  0  0  0  0  0  0  0  0  0  0
   -8.1062    0.8898   -1.0229 H   0  0  0  0  0  0  0  0  0  0  0  0
   -7.1173   -0.3842   -1.7761 H   0  0  0  0  0  0  0  0  0  0  0  0
   -7.1439    2.3071    0.7957 H   0  0  0  0  0  0  0  0  0  0  0  0
   -6.7275    0.8422    1.7171 H   0  0  0  0  0  0  0  0  0  0  0  0
   -5.4693    2.0428    1.3382 H   0  0  0  0  0  0  0  0  0  0  0  0
  1 14  2  0  0  0  0
  2 14  1  0  0  0  0
 14 19  1  0  0  0  0
  1  3  1  0  0  0  0
  2  4  2  0  0  0  0
  5 19  1  0  0  0  0
  3 15  2  0  0  0  0
  5 20  1  0  0  0  0
  6 15  1  0  0  0  0
  7 20  1  0  0  0  0
 17 20  1  0  0  0  0
  6 18  1  0  0  0  0
  7 22  1  0  0  0  0
 18 23  1  0  0  0  0
 16 18  2  0  0  0  0
 21 22  1  0  0  0  0
  8 21  1  0  0  0  0
  9 21  1  0  0  0  0
  4 15  1  0  0  0  0
  1 24  1  0  0  0  0
  2 25  1  0  0  0  0
  3 26  1  0  0  0  0
  4 27  1  0  0  0  0
  5 28  1  0  0  0  0
  5 29  1  0  0  0  0
 20 30  1  0  0  0  0
  6 31  1  0  0  0  0
  6 32  1  0  0  0  0
  7 33  1  0  0  0  0
  7 34  1  0  0  0  0
 10 17  1  0  0  0  0
 11 22  1  0  0  0  0
 12 23  1  0  0  0  0
 13 23  1  0  0  0  0
 21 35  1  0  0  0  0
  8 36  1  0  0  0  0
  8 37  1  0  0  0  0
  8 38  1  0  0  0  0
  9 39  1  0  0  0  0
  9 40  1  0  0  0  0
  9 41  1  0  0  0  0
M  END
$$$$
