C10H12N3O3PS2
APtclcactv12211717233D 0   0.00000     0.00000
 
 31 32  0  0  0  0  0  0  0  0999 V2000
    4.0789    1.5985   -0.3757 C   0  0  0  0  0  0  0  0  0  0  0  0
    5.2002   -0.7788    0.5705 C   0  0  0  0  0  0  0  0  0  0  0  0
    5.4222    1.5253   -0.0796 C   0  0  0  0  0  0  0  0  0  0  0  0
    5.9779    0.3424    0.3902 C   0  0  0  0  0  0  0  0  0  0  0  0
   -0.3017   -0.6794   -0.5811 C   0  0  0  0  0  0  0  0  0  0  0  0
   -2.9328   -2.5062   -0.7985 C   0  0  0  0  0  0  0  0  0  0  0  0
   -4.1825    2.0527    1.5387 C   0  0  0  0  0  0  0  0  0  0  0  0
    1.2925    1.5088   -0.9159 O   0  0  0  0  0  0  0  0  0  0  0  0
   -3.7237   -1.5382   -0.1061 O   0  0  0  0  0  0  0  0  0  0  0  0
   -4.1606    0.6454    1.2915 O   0  0  0  0  0  0  0  0  0  0  0  0
    1.8342    0.5004   -0.5015 C   0  0  0  0  0  0  0  0  0  0  0  0
    3.2738    0.4744   -0.2006 C   0  0  0  0  0  0  0  0  0  0  0  0
    3.8349   -0.7299    0.2774 C   0  0  0  0  0  0  0  0  0  0  0  0
   -3.2221   -0.0341    0.1736 P   0  0  0  0  0  0  0  0  0  0  0  0
    1.1354   -0.6415   -0.2989 N   0  0  0  0  0  0  0  0  0  0  0  0
   -1.2177   -0.0742    0.8629 S   0  0  0  0  0  0  0  0  0  0  0  0
    1.7835   -1.7845    0.1765 N   0  0  0  0  0  0  0  0  0  0  0  0
    3.0389   -1.8156    0.4423 N   0  0  0  0  0  0  0  0  0  0  0  0
   -3.3174    0.9557   -1.4025 S   0  0  0  0  0  0  0  0  0  0  0  0
   -0.5199   -0.0464   -1.4413 H   0  0  0  0  0  0  0  0  0  0  0  0
   -0.6023   -1.7043   -0.7987 H   0  0  0  0  0  0  0  0  0  0  0  0
    3.6515    2.5223   -0.7369 H   0  0  0  0  0  0  0  0  0  0  0  0
    5.6435   -1.6929    0.9372 H   0  0  0  0  0  0  0  0  0  0  0  0
    6.0486    2.3947   -0.2144 H   0  0  0  0  0  0  0  0  0  0  0  0
    7.0330    0.3019    0.6172 H   0  0  0  0  0  0  0  0  0  0  0  0
   -3.5211   -3.4101   -0.9568 H   0  0  0  0  0  0  0  0  0  0  0  0
   -2.6234   -2.1008   -1.7618 H   0  0  0  0  0  0  0  0  0  0  0  0
   -2.0506   -2.7463   -0.2050 H   0  0  0  0  0  0  0  0  0  0  0  0
   -3.1878    2.3849    1.8361 H   0  0  0  0  0  0  0  0  0  0  0  0
   -4.4842    2.5762    0.6315 H   0  0  0  0  0  0  0  0  0  0  0  0
   -4.8920    2.2704    2.3369 H   0  0  0  0  0  0  0  0  0  0  0  0
 14 16  1  0  0  0  0
  5 16  1  0  0  0  0
 14 19  2  0  0  0  0
  9 14  1  0  0  0  0
 10 14  1  0  0  0  0
  6  9  1  0  0  0  0
  7 10  1  0  0  0  0
  8 11  2  0  0  0  0
 15 17  1  0  0  0  0
 11 15  1  0  0  0  0
  5 15  1  0  0  0  0
 17 18  2  0  0  0  0
 13 18  1  0  0  0  0
 11 12  1  0  0  0  0
 12 13  2  0  0  0  0
  1 12  1  0  0  0  0
  2 13  1  0  0  0  0
  1  3  2  0  0  0  0
  2  4  2  0  0  0  0
  3  4  1  0  0  0  0
  5 20  1  0  0  0  0
  5 21  1  0  0  0  0
  1 22  1  0  0  0  0
  2 23  1  0  0  0  0
  3 24  1  0  0  0  0
  4 25  1  0  0  0  0
  6 26  1  0  0  0  0
  6 27  1  0  0  0  0
  6 28  1  0  0  0  0
  7 29  1  0  0  0  0
  7 30  1  0  0  0  0
  7 31  1  0  0  0  0
M  END
$$$$
