C7H11N7S
APtclcactv12151716203D 0   0.00000     0.00000
 
 26 26  0  0  0  0  0  0  0  0999 V2000
   -1.8479   -2.7229   -0.0889 N   0  3  0  0  0  0  0  0  0  0  0  0
   -2.9310   -3.0228   -0.0683 N   0  5  0  0  0  0  0  0  0  0  0  0
    4.8280    0.4569   -0.7815 C   0  0  0  0  0  0  0  0  0  0  0  0
    3.8821   -0.6280    1.2607 C   0  0  0  0  0  0  0  0  0  0  0  0
   -3.7732    1.2853    0.0840 C   0  0  0  0  0  0  0  0  0  0  0  0
    2.7591    1.8219   -0.0758 H   0  0  0  0  0  0  0  0  0  0  0  0
   -0.4310   -1.1388   -0.0756 C   0  0  0  0  0  0  0  0  0  0  0  0
    1.1900    0.5087   -0.0716 C   0  0  0  0  0  0  0  0  0  0  0  0
   -1.0449    1.0879    0.0062 C   0  0  0  0  0  0  0  0  0  0  0  0
    3.5664   -0.1403   -0.1547 C   0  0  0  0  0  0  0  0  0  0  0  0
    0.8637   -0.7764   -0.1001 N   0  0  0  0  0  0  0  0  0  0  0  0
   -1.3860   -0.1937   -0.0223 N   0  0  0  0  0  0  0  0  0  0  0  0
    0.2398    1.4391   -0.0184 N   0  0  0  0  0  0  0  0  0  0  0  0
    2.5190    0.8823   -0.0966 N   0  0  0  0  0  0  0  0  0  0  0  0
   -2.2941    2.3286    0.0754 S   0  0  0  0  0  0  0  0  0  0  0  0
   -0.7649   -2.4231   -0.1095 N   0  0  0  0  0  0  0  0  0  0  0  0
    3.2222   -0.9791   -0.7597 H   0  0  0  0  0  0  0  0  0  0  0  0
    5.1722    1.2957   -0.1765 H   0  0  0  0  0  0  0  0  0  0  0  0
    5.6073   -0.3040   -0.8247 H   0  0  0  0  0  0  0  0  0  0  0  0
    4.6031    0.8043   -1.7899 H   0  0  0  0  0  0  0  0  0  0  0  0
    4.2263    0.2108    1.8657 H   0  0  0  0  0  0  0  0  0  0  0  0
    2.9834   -1.0534    1.7073 H   0  0  0  0  0  0  0  0  0  0  0  0
    4.6614   -1.3888    1.2175 H   0  0  0  0  0  0  0  0  0  0  0  0
   -3.7976    0.6822   -0.8237 H   0  0  0  0  0  0  0  0  0  0  0  0
   -3.7507    0.6302    0.9549 H   0  0  0  0  0  0  0  0  0  0  0  0
   -4.6618    1.9151    0.1258 H   0  0  0  0  0  0  0  0  0  0  0  0
  7 11  2  0  0  0  0
  7 12  1  0  0  0  0
  7 16  1  0  0  0  0
  8 11  1  0  0  0  0
  9 12  2  0  0  0  0
  1 16  2  0  0  0  0
  8 13  2  0  0  0  0
  8 14  1  0  0  0  0
  9 13  1  0  0  0  0
 10 14  1  0  0  0  0
  9 15  1  0  0  0  0
  5 15  1  0  0  0  0
  3 10  1  0  0  0  0
  4 10  1  0  0  0  0
  1  2  2  0  0  0  0
  6 14  1  0  0  0  0
 10 17  1  0  0  0  0
  3 18  1  0  0  0  0
  3 19  1  0  0  0  0
  3 20  1  0  0  0  0
  4 21  1  0  0  0  0
  4 22  1  0  0  0  0
  4 23  1  0  0  0  0
  5 24  1  0  0  0  0
  5 25  1  0  0  0  0
  5 26  1  0  0  0  0
M  CHG  2   1   1   2  -1
M  END
$$$$
