C11H11NO
APtclcactv12211717323D 0   0.00000     0.00000
 
 24 25  0  0  0  0  0  0  0  0999 V2000
   -2.2881   -1.7998    0.0016 O   0  0  0  0  0  0  0  0  0  0  0  0
   -2.1179   -0.5948    0.0029 C   0  0  0  0  0  0  0  0  0  0  0  0
   -0.7599   -0.0472    0.0027 C   0  0  0  0  0  0  0  0  0  0  0  0
    0.3019   -0.8779    0.0010 C   0  0  0  0  0  0  0  0  0  0  0  0
    1.6672   -0.3274    0.0007 C   0  0  0  0  0  0  0  0  0  0  0  0
    2.7710   -1.1858   -0.0010 C   0  0  0  0  0  0  0  0  0  0  0  0
    4.0468   -0.6624   -0.0017 C   0  0  0  0  0  0  0  0  0  0  0  0
    4.2362    0.7086   -0.0003 C   0  0  0  0  0  0  0  0  0  0  0  0
    3.1487    1.5647    0.0019 C   0  0  0  0  0  0  0  0  0  0  0  0
    1.8668    1.0567   -0.0037 C   0  0  0  0  0  0  0  0  0  0  0  0
   -3.1794    0.2357   -0.0010 N   0  0  0  0  0  0  0  0  0  0  0  0
   -4.6348    0.4030   -0.0069 C   0  0  0  0  0  0  0  0  0  0  0  0
   -3.6920    1.6080    0.0037 C   0  0  0  0  0  0  0  0  0  0  0  0
   -0.6088    1.0222    0.0038 H   0  0  0  0  0  0  0  0  0  0  0  0
    0.1509   -1.9473   -0.0001 H   0  0  0  0  0  0  0  0  0  0  0  0
    2.6248   -2.2558   -0.0014 H   0  0  0  0  0  0  0  0  0  0  0  0
    4.9003   -1.3241   -0.0030 H   0  0  0  0  0  0  0  0  0  0  0  0
    5.2378    1.1124   -0.0005 H   0  0  0  0  0  0  0  0  0  0  0  0
    3.3046    2.6334    0.0034 H   0  0  0  0  0  0  0  0  0  0  0  0
    1.0192    1.7259   -0.0023 H   0  0  0  0  0  0  0  0  0  0  0  0
   -5.1657    0.1804   -0.9325 H   0  0  0  0  0  0  0  0  0  0  0  0
   -5.1734    0.1783    0.9137 H   0  0  0  0  0  0  0  0  0  0  0  0
   -3.6078    2.1761    0.9302 H   0  0  0  0  0  0  0  0  0  0  0  0
   -3.5993    2.1857   -0.9159 H   0  0  0  0  0  0  0  0  0  0  0  0
  1  2  2  0  0  0  0
  2  3  1  0  0  0  0
  3  4  2  0  0  0  0
  4  5  1  0  0  0  0
  5  6  2  0  0  0  0
  6  7  1  0  0  0  0
  7  8  2  0  0  0  0
  8  9  1  0  0  0  0
  9 10  2  0  0  0  0
  5 10  1  0  0  0  0
  2 11  1  0  0  0  0
 11 12  1  0  0  0  0
 12 13  1  0  0  0  0
 11 13  1  0  0  0  0
  3 14  1  0  0  0  0
  4 15  1  0  0  0  0
  6 16  1  0  0  0  0
  7 17  1  0  0  0  0
  8 18  1  0  0  0  0
  9 19  1  0  0  0  0
 10 20  1  0  0  0  0
 12 21  1  0  0  0  0
 12 22  1  0  0  0  0
 13 23  1  0  0  0  0
 13 24  1  0  0  0  0
M  END
$$$$
