C10H12ClNO2
APtclcactv12211717233D 0   0.00000     0.00000
 
 26 26  0  0  0  0  0  0  0  0999 V2000
    0.9065    0.3600   -1.2975 C   0  0  0  0  0  0  0  0  0  0  0  0
    0.6999   -0.2442    1.0105 C   0  0  0  0  0  0  0  0  0  0  0  0
    2.2744    0.1766   -1.2238 C   0  0  0  0  0  0  0  0  0  0  0  0
    2.0677   -0.4284    1.0854 C   0  0  0  0  0  0  0  0  0  0  0  0
   -2.0820   -0.9621    0.0794 C   0  0  0  0  0  0  0  0  0  0  0  0
   -1.7961    1.4326    0.7324 C   0  0  0  0  0  0  0  0  0  0  0  0
   -1.4661    2.9568   -0.6115 H   0  0  0  0  0  0  0  0  0  0  0  0
   -1.4746    3.4514    0.9763 H   0  0  0  0  0  0  0  0  0  0  0  0
    0.1194    0.1495   -0.1807 C   0  0  0  0  0  0  0  0  0  0  0  0
    2.8559   -0.2179   -0.0320 C   0  0  0  0  0  0  0  0  0  0  0  0
   -4.0111    0.2619   -0.4971 O   0  0  0  0  0  0  0  0  0  0  0  0
   -4.3948   -1.8250    0.1200 O   0  0  0  0  0  0  0  0  0  0  0  0
   -3.5665   -0.7966   -0.1205 C   0  0  0  0  0  0  0  0  0  0  0  0
   -5.3388   -1.6710   -0.0224 H   0  0  0  0  0  0  0  0  0  0  0  0
   -1.3721    0.3496   -0.2618 C   0  0  0  0  0  0  0  0  0  0  0  0
    4.5739   -0.4491    0.0613 Cl  0  0  0  0  0  0  0  0  0  0  0  0
   -1.2091    2.7192    0.3348 N   0  0  0  0  0  0  0  0  0  0  0  0
   -1.6430    0.6574   -1.2717 H   0  0  0  0  0  0  0  0  0  0  0  0
    0.4529    0.6722   -2.2266 H   0  0  0  0  0  0  0  0  0  0  0  0
    0.0845   -0.4086    1.8827 H   0  0  0  0  0  0  0  0  0  0  0  0
   -1.8822   -1.2237    1.1185 H   0  0  0  0  0  0  0  0  0  0  0  0
   -1.7138   -1.7546   -0.5721 H   0  0  0  0  0  0  0  0  0  0  0  0
   -2.8830    1.5153    0.7379 H   0  0  0  0  0  0  0  0  0  0  0  0
   -1.4469    1.1667    1.7301 H   0  0  0  0  0  0  0  0  0  0  0  0
    2.8891    0.3407   -2.0964 H   0  0  0  0  0  0  0  0  0  0  0  0
    2.5212   -0.7356    2.0162 H   0  0  0  0  0  0  0  0  0  0  0  0
  9 15  1  0  0  0  0
  1  9  1  0  0  0  0
  2  9  2  0  0  0  0
  5 15  1  0  0  0  0
  6 15  1  0  0  0  0
  1  3  2  0  0  0  0
  2  4  1  0  0  0  0
  5 13  1  0  0  0  0
  6 17  1  0  0  0  0
  3 10  1  0  0  0  0
 12 13  1  0  0  0  0
 11 13  2  0  0  0  0
 10 16  1  0  0  0  0
  4 10  2  0  0  0  0
 15 18  1  0  0  0  0
  1 19  1  0  0  0  0
  2 20  1  0  0  0  0
  5 21  1  0  0  0  0
  5 22  1  0  0  0  0
  6 23  1  0  0  0  0
  6 24  1  0  0  0  0
  3 25  1  0  0  0  0
  4 26  1  0  0  0  0
  7 17  1  0  0  0  0
  8 17  1  0  0  0  0
 12 14  1  0  0  0  0
M  END
$$$$
