C10H9NO3S
APtclcactv12211717213D 0   0.00000     0.00000
 
 24 25  0  0  0  0  0  0  0  0999 V2000
    0.9777    1.0310    0.0292 C   0  0  0  0  0  0  0  0  0  0  0  0
    1.1329   -2.6815   -0.0335 C   0  0  0  0  0  0  0  0  0  0  0  0
    2.9094   -0.9969   -0.0439 C   0  0  0  0  0  0  0  0  0  0  0  0
   -1.1561   -1.9704    0.0258 C   0  0  0  0  0  0  0  0  0  0  0  0
   -0.1954   -2.9789   -0.0105 C   0  0  0  0  0  0  0  0  0  0  0  0
    3.2807    0.3103   -0.0311 C   0  0  0  0  0  0  0  0  0  0  0  0
    2.0729    3.3752    0.0424 H   0  0  0  0  0  0  0  0  0  0  0  0
    3.6782    2.8812    0.0008 H   0  0  0  0  0  0  0  0  0  0  0  0
   -0.7939   -0.6583    0.0394 C   0  0  0  0  0  0  0  0  0  0  0  0
    2.3220    1.3305    0.0054 C   0  0  0  0  0  0  0  0  0  0  0  0
   -3.2370   -0.0377    0.4688 O   0  0  0  0  0  0  0  0  0  0  0  0
   -1.4612    1.6897    0.8006 O   0  0  0  0  0  0  0  0  0  0  0  0
   -2.2298    1.0834   -1.3439 O   0  0  0  0  0  0  0  0  0  0  0  0
   -2.8927    1.7819   -1.4322 H   0  0  0  0  0  0  0  0  0  0  0  0
    2.7328    2.6647    0.0175 N   0  0  0  0  0  0  0  0  0  0  0  0
   -2.0265    0.6000    0.0849 S   0  0  0  0  0  0  0  0  0  0  0  0
    0.5682   -0.3124    0.0165 C   0  0  0  0  0  0  0  0  0  0  0  0
    1.5457   -1.3386   -0.0205 C   0  0  0  0  0  0  0  0  0  0  0  0
    0.2443    1.8231    0.0618 H   0  0  0  0  0  0  0  0  0  0  0  0
    1.8660   -3.4741   -0.0612 H   0  0  0  0  0  0  0  0  0  0  0  0
    3.6608   -1.7721   -0.0725 H   0  0  0  0  0  0  0  0  0  0  0  0
   -2.2034   -2.2336    0.0431 H   0  0  0  0  0  0  0  0  0  0  0  0
   -0.5092   -4.0122   -0.0210 H   0  0  0  0  0  0  0  0  0  0  0  0
    4.3298    0.5661   -0.0493 H   0  0  0  0  0  0  0  0  0  0  0  0
 17 18  1  0  0  0  0
  9 17  2  0  0  0  0
  1 17  1  0  0  0  0
  2 18  2  0  0  0  0
  3 18  1  0  0  0  0
  4  9  1  0  0  0  0
  9 16  1  0  0  0  0
  1 10  2  0  0  0  0
  2  5  1  0  0  0  0
  3  6  2  0  0  0  0
 13 16  1  0  0  0  0
 11 16  2  0  0  0  0
 12 16  2  0  0  0  0
 10 15  1  0  0  0  0
  4  5  2  0  0  0  0
  6 10  1  0  0  0  0
  1 19  1  0  0  0  0
  2 20  1  0  0  0  0
  3 21  1  0  0  0  0
  4 22  1  0  0  0  0
  5 23  1  0  0  0  0
  6 24  1  0  0  0  0
 13 14  1  0  0  0  0
  7 15  1  0  0  0  0
  8 15  1  0  0  0  0
M  END
$$$$
