C8H12N2O3
APtclcactv12151716333D 0   0.00000     0.00000
 
 25 25  0  0  0  0  0  0  0  0999 V2000
   -1.7811    0.0539   -1.2365 C   0  0  0  0  0  0  0  0  0  0  0  0
   -1.7811    0.0387    1.2362 C   0  0  0  0  0  0  0  0  0  0  0  0
   -0.9195   -0.0376   -2.4976 C   0  0  0  0  0  0  0  0  0  0  0  0
   -0.9194   -0.0681    2.4960 C   0  0  0  0  0  0  0  0  0  0  0  0
    1.8372    1.9758    0.0113 H   0  0  0  0  0  0  0  0  0  0  0  0
    1.7639   -2.0147   -0.0128 H   0  0  0  0  0  0  0  0  0  0  0  0
   -0.6703   -2.3439   -0.0099 O   0  0  0  0  0  0  0  0  0  0  0  0
   -0.5833    2.3941    0.0138 O   0  0  0  0  0  0  0  0  0  0  0  0
    3.1017   -0.0434    0.0000 O   0  0  0  0  0  0  0  0  0  0  0  0
   -0.1024   -1.2728   -0.0083 C   0  0  0  0  0  0  0  0  0  0  0  0
   -0.0551    1.3029    0.0075 C   0  0  0  0  0  0  0  0  0  0  0  0
    1.8870   -0.0210   -0.0002 C   0  0  0  0  0  0  0  0  0  0  0  0
   -0.8800    0.0298   -0.0003 C   0  0  0  0  0  0  0  0  0  0  0  0
    1.2453   -1.1950   -0.0078 N   0  0  0  0  0  0  0  0  0  0  0  0
    1.2888    1.1757    0.0067 N   0  0  0  0  0  0  0  0  0  0  0  0
   -2.3512    0.9828   -1.2526 H   0  0  0  0  0  0  0  0  0  0  0  0
   -2.4668   -0.7927   -1.2029 H   0  0  0  0  0  0  0  0  0  0  0  0
   -2.4668   -0.8074    1.1921 H   0  0  0  0  0  0  0  0  0  0  0  0
   -2.3511    0.9674    1.2636 H   0  0  0  0  0  0  0  0  0  0  0  0
   -0.3494   -0.9665   -2.4815 H   0  0  0  0  0  0  0  0  0  0  0  0
   -1.5615   -0.0204   -3.3783 H   0  0  0  0  0  0  0  0  0  0  0  0
   -0.2337    0.8090   -2.5312 H   0  0  0  0  0  0  0  0  0  0  0  0
   -0.2337    0.7780    2.5400 H   0  0  0  0  0  0  0  0  0  0  0  0
   -1.5614   -0.0617    3.3768 H   0  0  0  0  0  0  0  0  0  0  0  0
   -0.3494   -0.9968    2.4686 H   0  0  0  0  0  0  0  0  0  0  0  0
 10 13  1  0  0  0  0
 11 13  1  0  0  0  0
  1 13  1  0  0  0  0
  2 13  1  0  0  0  0
 10 14  1  0  0  0  0
  7 10  2  0  0  0  0
 11 15  1  0  0  0  0
  8 11  2  0  0  0  0
  1  3  1  0  0  0  0
  2  4  1  0  0  0  0
 12 14  1  0  0  0  0
  9 12  2  0  0  0  0
 12 15  1  0  0  0  0
  1 16  1  0  0  0  0
  1 17  1  0  0  0  0
  2 18  1  0  0  0  0
  2 19  1  0  0  0  0
  5 15  1  0  0  0  0
  3 20  1  0  0  0  0
  3 21  1  0  0  0  0
  3 22  1  0  0  0  0
  4 23  1  0  0  0  0
  4 24  1  0  0  0  0
  4 25  1  0  0  0  0
  6 14  1  0  0  0  0
M  END
$$$$
