C11H9Cl2NO2
APtclcactv12211717313D 0   0.00000     0.00000
 
 25 25  0  0  0  0  0  0  0  0999 V2000
    3.3190   -0.7743   -0.1644 C   0  0  0  0  0  0  0  0  0  0  0  0
    2.5723    1.5038   -0.3362 C   0  0  0  0  0  0  0  0  0  0  0  0
    3.8623    1.9413   -0.1088 C   0  0  0  0  0  0  0  0  0  0  0  0
    4.8795    1.0261    0.0905 C   0  0  0  0  0  0  0  0  0  0  0  0
   -2.3853    0.7293    0.2867 C   0  0  0  0  0  0  0  0  0  0  0  0
   -5.9858   -1.1493   -0.3957 C   0  0  0  0  0  0  0  0  0  0  0  0
    0.8373   -1.1163   -1.1014 H   0  0  0  0  0  0  0  0  0  0  0  0
    2.2964    0.1429   -0.3647 C   0  0  0  0  0  0  0  0  0  0  0  0
    4.6085   -0.3306    0.0627 C   0  0  0  0  0  0  0  0  0  0  0  0
    0.1303    1.4596    0.4462 O   0  0  0  0  0  0  0  0  0  0  0  0
   -0.0560    0.3979   -0.1146 C   0  0  0  0  0  0  0  0  0  0  0  0
   -1.3075   -0.0785   -0.2555 O   0  0  0  0  0  0  0  0  0  0  0  0
    5.8884   -1.4762    0.3140 Cl  0  0  0  0  0  0  0  0  0  0  0  0
   -7.3241   -0.1462    0.2776 Cl  0  0  0  0  0  0  0  0  0  0  0  0
    0.9900   -0.3029   -0.5954 N   0  0  0  0  0  0  0  0  0  0  0  0
   -3.6723    0.0578    0.0428 C   0  0  0  0  0  0  0  0  0  0  0  0
   -4.6988   -0.4778   -0.1518 C   0  0  0  0  0  0  0  0  0  0  0  0
    3.1067   -1.8331   -0.1816 H   0  0  0  0  0  0  0  0  0  0  0  0
    1.7785    2.2195   -0.4914 H   0  0  0  0  0  0  0  0  0  0  0  0
   -2.2396    0.8569    1.3593 H   0  0  0  0  0  0  0  0  0  0  0  0
   -2.3871    1.7055   -0.1984 H   0  0  0  0  0  0  0  0  0  0  0  0
    4.0769    2.9995   -0.0866 H   0  0  0  0  0  0  0  0  0  0  0  0
    5.8876    1.3708    0.2677 H   0  0  0  0  0  0  0  0  0  0  0  0
   -5.9839   -2.1254    0.0894 H   0  0  0  0  0  0  0  0  0  0  0  0
   -6.1315   -1.2768   -1.4683 H   0  0  0  0  0  0  0  0  0  0  0  0
 11 15  1  0  0  0  0
 11 12  1  0  0  0  0
 10 11  2  0  0  0  0
  8 15  1  0  0  0  0
  1  8  2  0  0  0  0
  2  8  1  0  0  0  0
  5 12  1  0  0  0  0
  1  9  1  0  0  0  0
  2  3  2  0  0  0  0
  5 16  1  0  0  0  0
  9 13  1  0  0  0  0
  4  9  2  0  0  0  0
  3  4  1  0  0  0  0
 16 17  3  0  0  0  0
  6 17  1  0  0  0  0
  6 14  1  0  0  0  0
  7 15  1  0  0  0  0
  1 18  1  0  0  0  0
  2 19  1  0  0  0  0
  5 20  1  0  0  0  0
  5 21  1  0  0  0  0
  3 22  1  0  0  0  0
  4 23  1  0  0  0  0
  6 24  1  0  0  0  0
  6 25  1  0  0  0  0
M  END
$$$$
