C9H6ClNO3S
APtclcactv12151716413D 0   0.00000     0.00000
 
 21 22  0  0  0  0  0  0  0  0999 V2000
    2.9568    0.7739   -0.4368 C   0  0  0  0  0  0  0  0  0  0  0  0
    1.3734    2.5297   -0.0982 C   0  0  0  0  0  0  0  0  0  0  0  0
    2.6589    2.1224   -0.4116 C   0  0  0  0  0  0  0  0  0  0  0  0
   -1.5926   -0.5628    0.7766 C   0  0  0  0  0  0  0  0  0  0  0  0
    0.3921    1.6086    0.1882 C   0  0  0  0  0  0  0  0  0  0  0  0
   -0.3450   -3.0935    0.5527 O   0  0  0  0  0  0  0  0  0  0  0  0
   -1.8551   -0.4371   -1.5616 O   0  0  0  0  0  0  0  0  0  0  0  0
   -3.7136   -0.1229   -0.4080 O   0  0  0  0  0  0  0  0  0  0  0  0
   -2.3964   -0.3697   -0.4834 C   0  0  0  0  0  0  0  0  0  0  0  0
    0.2768   -2.0659    0.3555 C   0  0  0  0  0  0  0  0  0  0  0  0
   -4.1869   -0.0062   -1.2432 H   0  0  0  0  0  0  0  0  0  0  0  0
    0.6719    0.2325    0.1682 C   0  0  0  0  0  0  0  0  0  0  0  0
    1.9731   -0.1561   -0.1499 C   0  0  0  0  0  0  0  0  0  0  0  0
   -1.2096    2.1534    0.5773 Cl  0  0  0  0  0  0  0  0  0  0  0  0
   -0.1924   -0.8165    0.4286 N   0  0  0  0  0  0  0  0  0  0  0  0
    1.9862   -1.9239   -0.0869 S   0  0  0  0  0  0  0  0  0  0  0  0
    3.9554    0.4455   -0.6844 H   0  0  0  0  0  0  0  0  0  0  0  0
   -1.6574    0.3358    1.3902 H   0  0  0  0  0  0  0  0  0  0  0  0
   -1.9883   -1.4122    1.3334 H   0  0  0  0  0  0  0  0  0  0  0  0
    1.1381    3.5836   -0.0771 H   0  0  0  0  0  0  0  0  0  0  0  0
    3.4225    2.8529   -0.6342 H   0  0  0  0  0  0  0  0  0  0  0  0
 12 13  2  0  0  0  0
 12 15  1  0  0  0  0
  5 12  1  0  0  0  0
 13 16  1  0  0  0  0
  1 13  1  0  0  0  0
 10 15  1  0  0  0  0
  4 15  1  0  0  0  0
  2  5  2  0  0  0  0
  5 14  1  0  0  0  0
  1  3  2  0  0  0  0
  6 10  2  0  0  0  0
  4  9  1  0  0  0  0
  8  9  1  0  0  0  0
  7  9  2  0  0  0  0
 10 16  1  0  0  0  0
  2  3  1  0  0  0  0
  1 17  1  0  0  0  0
  4 18  1  0  0  0  0
  4 19  1  0  0  0  0
  2 20  1  0  0  0  0
  3 21  1  0  0  0  0
  8 11  1  0  0  0  0
M  END
$$$$
