C12H12O6
APtclcactv12111704583D 0   0.00000     0.00000
 
 30 30  0  0  0  0  0  0  0  0999 V2000
    2.6133   -1.7405    0.0019 C   0  0  0  0  0  0  0  0  0  0  0  0
    2.8749   -3.1785    0.3691 C   0  0  0  0  0  0  0  0  0  0  0  0
    2.8523   -1.3494   -1.1160 O   0  0  0  0  0  0  0  0  0  0  0  0
    2.1093   -0.8951    0.9157 O   0  0  0  0  0  0  0  0  0  0  0  0
    1.9863    0.4060    0.5498 C   0  0  0  0  0  0  0  0  0  0  0  0
    0.8286    0.8463   -0.1064 C   0  0  0  0  0  0  0  0  0  0  0  0
   -0.2617   -0.1011   -0.4026 C   0  0  0  0  0  0  0  0  0  0  0  0
   -0.1582   -1.2673   -0.0778 O   0  0  0  0  0  0  0  0  0  0  0  0
   -1.3729    0.3264   -1.0336 O   0  0  0  0  0  0  0  0  0  0  0  0
   -2.4052   -0.6613   -1.2926 C   0  0  0  0  0  0  0  0  0  0  0  0
   -3.1064   -0.9638   -0.0577 O   0  0  0  0  0  0  0  0  0  0  0  0
   -3.9746   -0.0438    0.3912 C   0  0  0  0  0  0  0  0  0  0  0  0
   -4.7393   -0.2882    1.6666 C   0  0  0  0  0  0  0  0  0  0  0  0
   -4.1431    0.9805   -0.2272 O   0  0  0  0  0  0  0  0  0  0  0  0
    0.7136    2.1885   -0.4777 C   0  0  0  0  0  0  0  0  0  0  0  0
    1.7360    3.0688   -0.1975 C   0  0  0  0  0  0  0  0  0  0  0  0
    2.8788    2.6293    0.4508 C   0  0  0  0  0  0  0  0  0  0  0  0
    3.0029    1.3069    0.8284 C   0  0  0  0  0  0  0  0  0  0  0  0
    3.2757   -3.7072   -0.4957 H   0  0  0  0  0  0  0  0  0  0  0  0
    3.5953   -3.2196    1.1861 H   0  0  0  0  0  0  0  0  0  0  0  0
    1.9428   -3.6487    0.6826 H   0  0  0  0  0  0  0  0  0  0  0  0
   -3.1107   -0.2664   -2.0236 H   0  0  0  0  0  0  0  0  0  0  0  0
   -1.9483   -1.5706   -1.6831 H   0  0  0  0  0  0  0  0  0  0  0  0
   -4.1709    0.1010    2.5113 H   0  0  0  0  0  0  0  0  0  0  0  0
   -5.7040    0.2165    1.6143 H   0  0  0  0  0  0  0  0  0  0  0  0
   -4.8960   -1.3590    1.7967 H   0  0  0  0  0  0  0  0  0  0  0  0
   -0.1752    2.5353   -0.9839 H   0  0  0  0  0  0  0  0  0  0  0  0
    1.6462    4.1060   -0.4849 H   0  0  0  0  0  0  0  0  0  0  0  0
    3.6755    3.3260    0.6658 H   0  0  0  0  0  0  0  0  0  0  0  0
    3.8967    0.9720    1.3337 H   0  0  0  0  0  0  0  0  0  0  0  0
  1  2  1  0  0  0  0
  1  3  2  0  0  0  0
  1  4  1  0  0  0  0
  4  5  1  0  0  0  0
  5  6  2  0  0  0  0
  6  7  1  0  0  0  0
  7  8  2  0  0  0  0
  7  9  1  0  0  0  0
  9 10  1  0  0  0  0
 10 11  1  0  0  0  0
 11 12  1  0  0  0  0
 12 13  1  0  0  0  0
 12 14  2  0  0  0  0
  6 15  1  0  0  0  0
 15 16  2  0  0  0  0
 16 17  1  0  0  0  0
 17 18  2  0  0  0  0
  5 18  1  0  0  0  0
  2 19  1  0  0  0  0
  2 20  1  0  0  0  0
  2 21  1  0  0  0  0
 10 22  1  0  0  0  0
 10 23  1  0  0  0  0
 13 24  1  0  0  0  0
 13 25  1  0  0  0  0
 13 26  1  0  0  0  0
 15 27  1  0  0  0  0
 16 28  1  0  0  0  0
 17 29  1  0  0  0  0
 18 30  1  0  0  0  0
M  END
$$$$
