C7H5NS
APtclcactv12151716143D 0   0.00000     0.00000
 
 14 15  0  0  0  0  0  0  0  0999 V2000
   -1.7720    0.8715    0.0000 S   0  0  0  0  0  0  0  0  0  0  0  0
   -2.0989   -0.8034   -0.0000 C   0  0  0  0  0  0  0  0  0  0  0  0
   -1.0208   -1.4920   -0.0000 N   0  0  0  0  0  0  0  0  0  0  0  0
    0.1503   -0.8271   -0.0000 C   0  0  0  0  0  0  0  0  0  0  0  0
   -0.0391    0.5591    0.0000 C   0  0  0  0  0  0  0  0  0  0  0  0
    1.0582    1.4179    0.0000 C   0  0  0  0  0  0  0  0  0  0  0  0
    2.3345    0.9022    0.0000 C   0  0  0  0  0  0  0  0  0  0  0  0
    2.5293   -0.4720    0.0000 C   0  0  0  0  0  0  0  0  0  0  0  0
    1.4687   -1.3261   -0.0000 C   0  0  0  0  0  0  0  0  0  0  0  0
   -3.0916   -1.2288   -0.0000 H   0  0  0  0  0  0  0  0  0  0  0  0
    0.9074    2.4873   -0.0003 H   0  0  0  0  0  0  0  0  0  0  0  0
    3.1851    1.5676   -0.0003 H   0  0  0  0  0  0  0  0  0  0  0  0
    3.5339   -0.8685   -0.0000 H   0  0  0  0  0  0  0  0  0  0  0  0
    1.6387   -2.3926    0.0003 H   0  0  0  0  0  0  0  0  0  0  0  0
  1  2  1  0  0  0  0
  2  3  2  0  0  0  0
  3  4  1  0  0  0  0
  4  5  2  0  0  0  0
  1  5  1  0  0  0  0
  5  6  1  0  0  0  0
  6  7  2  0  0  0  0
  7  8  1  0  0  0  0
  8  9  2  0  0  0  0
  4  9  1  0  0  0  0
  2 10  1  0  0  0  0
  6 11  1  0  0  0  0
  7 12  1  0  0  0  0
  8 13  1  0  0  0  0
  9 14  1  0  0  0  0
M  END
$$$$
