C8H6O3
APtclcactv12151716263D 0   0.00000     0.00000
 
 17 17  0  0  0  0  0  0  0  0999 V2000
    0.9662    0.6702   -0.0239 C   0  0  0  0  0  0  0  0  0  0  0  0
   -0.4560    0.2830   -0.0178 C   0  0  0  0  0  0  0  0  0  0  0  0
   -1.4505    1.2607    0.0945 C   0  0  0  0  0  0  0  0  0  0  0  0
   -2.7784    0.8906    0.0989 C   0  0  0  0  0  0  0  0  0  0  0  0
   -3.1290   -0.4446   -0.0070 C   0  0  0  0  0  0  0  0  0  0  0  0
   -2.1508   -1.4181   -0.1185 C   0  0  0  0  0  0  0  0  0  0  0  0
   -0.8187   -1.0637   -0.1302 C   0  0  0  0  0  0  0  0  0  0  0  0
    1.2757    1.8423   -0.0785 O   0  0  0  0  0  0  0  0  0  0  0  0
    2.0256   -0.3792    0.0434 C   0  0  0  0  0  0  0  0  0  0  0  0
    1.7189   -1.5409    0.2080 O   0  0  0  0  0  0  0  0  0  0  0  0
    3.3210   -0.0362   -0.0786 O   0  0  0  0  0  0  0  0  0  0  0  0
   -1.1786    2.3026    0.1778 H   0  0  0  0  0  0  0  0  0  0  0  0
   -3.5472    1.6440    0.1855 H   0  0  0  0  0  0  0  0  0  0  0  0
   -4.1710   -0.7284   -0.0022 H   0  0  0  0  0  0  0  0  0  0  0  0
   -2.4323   -2.4575   -0.2007 H   0  0  0  0  0  0  0  0  0  0  0  0
   -0.0568   -1.8242   -0.2173 H   0  0  0  0  0  0  0  0  0  0  0  0
    3.9709   -0.7505   -0.0285 H   0  0  0  0  0  0  0  0  0  0  0  0
  1  2  1  0  0  0  0
  2  3  2  0  0  0  0
  3  4  1  0  0  0  0
  4  5  2  0  0  0  0
  5  6  1  0  0  0  0
  6  7  2  0  0  0  0
  2  7  1  0  0  0  0
  1  8  2  0  0  0  0
  1  9  1  0  0  0  0
  9 10  2  0  0  0  0
  9 11  1  0  0  0  0
  3 12  1  0  0  0  0
  4 13  1  0  0  0  0
  5 14  1  0  0  0  0
  6 15  1  0  0  0  0
  7 16  1  0  0  0  0
 11 17  1  0  0  0  0
M  END
$$$$
