C13H12O
APtclcactv12071713253D 0   0.00000     0.00000
 
 26 27  0  0  0  0  0  0  0  0999 V2000
   -0.0017   -0.6733   -1.1577 C   0  0  0  0  0  0  0  0  0  0  0  0
   -1.2310   -0.1812   -0.4382 C   0  0  0  0  0  0  0  0  0  0  0  0
   -1.9211    0.9156   -0.9196 C   0  0  0  0  0  0  0  0  0  0  0  0
   -3.0487    1.3670   -0.2596 C   0  0  0  0  0  0  0  0  0  0  0  0
   -3.4864    0.7214    0.8816 C   0  0  0  0  0  0  0  0  0  0  0  0
   -2.7969   -0.3759    1.3626 C   0  0  0  0  0  0  0  0  0  0  0  0
   -1.6718   -0.8300    0.7001 C   0  0  0  0  0  0  0  0  0  0  0  0
    1.2299   -0.1727   -0.4480 C   0  0  0  0  0  0  0  0  0  0  0  0
    1.8488    0.9880   -0.8731 C   0  0  0  0  0  0  0  0  0  0  0  0
    2.9785    1.4471   -0.2221 C   0  0  0  0  0  0  0  0  0  0  0  0
    3.4891    0.7458    0.8542 C   0  0  0  0  0  0  0  0  0  0  0  0
    2.8697   -0.4144    1.2798 C   0  0  0  0  0  0  0  0  0  0  0  0
    1.7374   -0.8712    0.6315 C   0  0  0  0  0  0  0  0  0  0  0  0
    0.0031   -2.1022   -1.1697 O   0  0  0  0  0  0  0  0  0  0  0  0
   -0.0071   -0.3014   -2.1823 H   0  0  0  0  0  0  0  0  0  0  0  0
   -1.5791    1.4200   -1.8113 H   0  0  0  0  0  0  0  0  0  0  0  0
   -3.5874    2.2243   -0.6354 H   0  0  0  0  0  0  0  0  0  0  0  0
   -4.3670    1.0746    1.3977 H   0  0  0  0  0  0  0  0  0  0  0  0
   -3.1387   -0.8801    2.2544 H   0  0  0  0  0  0  0  0  0  0  0  0
   -1.1331   -1.6873    1.0759 H   0  0  0  0  0  0  0  0  0  0  0  0
    1.4499    1.5359   -1.7139 H   0  0  0  0  0  0  0  0  0  0  0  0
    3.4625    2.3535   -0.5547 H   0  0  0  0  0  0  0  0  0  0  0  0
    4.3722    1.1041    1.3623 H   0  0  0  0  0  0  0  0  0  0  0  0
    3.2688   -0.9625    2.1204 H   0  0  0  0  0  0  0  0  0  0  0  0
    1.2534   -1.7776    0.9641 H   0  0  0  0  0  0  0  0  0  0  0  0
    0.0080   -2.5030   -0.2897 H   0  0  0  0  0  0  0  0  0  0  0  0
  1  2  1  0  0  0  0
  2  3  2  0  0  0  0
  3  4  1  0  0  0  0
  4  5  2  0  0  0  0
  5  6  1  0  0  0  0
  6  7  2  0  0  0  0
  2  7  1  0  0  0  0
  1  8  1  0  0  0  0
  8  9  2  0  0  0  0
  9 10  1  0  0  0  0
 10 11  2  0  0  0  0
 11 12  1  0  0  0  0
 12 13  2  0  0  0  0
  8 13  1  0  0  0  0
  1 14  1  0  0  0  0
  1 15  1  0  0  0  0
  3 16  1  0  0  0  0
  4 17  1  0  0  0  0
  5 18  1  0  0  0  0
  6 19  1  0  0  0  0
  7 20  1  0  0  0  0
  9 21  1  0  0  0  0
 10 22  1  0  0  0  0
 11 23  1  0  0  0  0
 12 24  1  0  0  0  0
 13 25  1  0  0  0  0
 14 26  1  0  0  0  0
M  END
$$$$
