C7H5N
APtclcactv12151716133D 0   0.00000     0.00000
 
 13 13  0  0  0  0  0  0  0  0999 V2000
   -1.9791    0.0000   -0.0007 C   0  0  0  0  0  0  0  0  0  0  0  0
   -0.5471   -0.0000   -0.0006 C   0  0  0  0  0  0  0  0  0  0  0  0
    0.1543    1.2074    0.0006 C   0  0  0  0  0  0  0  0  0  0  0  0
    1.5337    1.2001    0.0007 C   0  0  0  0  0  0  0  0  0  0  0  0
    2.2223   -0.0000   -0.0008 C   0  0  0  0  0  0  0  0  0  0  0  0
    1.5337   -1.2001   -0.0025 C   0  0  0  0  0  0  0  0  0  0  0  0
    0.1542   -1.2074    0.0042 C   0  0  0  0  0  0  0  0  0  0  0  0
   -3.1151    0.0000   -0.0008 N   0  0  0  0  0  0  0  0  0  0  0  0
   -0.3820    2.1449    0.0011 H   0  0  0  0  0  0  0  0  0  0  0  0
    2.0774    2.1332    0.0016 H   0  0  0  0  0  0  0  0  0  0  0  0
    3.3023   -0.0000   -0.0011 H   0  0  0  0  0  0  0  0  0  0  0  0
    2.0774   -2.1332   -0.0040 H   0  0  0  0  0  0  0  0  0  0  0  0
   -0.3821   -2.1448    0.0030 H   0  0  0  0  0  0  0  0  0  0  0  0
  1  2  1  0  0  0  0
  2  3  2  0  0  0  0
  3  4  1  0  0  0  0
  4  5  2  0  0  0  0
  5  6  1  0  0  0  0
  6  7  2  0  0  0  0
  2  7  1  0  0  0  0
  1  8  3  0  0  0  0
  3  9  1  0  0  0  0
  4 10  1  0  0  0  0
  5 11  1  0  0  0  0
  6 12  1  0  0  0  0
  7 13  1  0  0  0  0
M  END
$$$$
