C14H12O3
APtclcactv12091702573D 0   0.00000     0.00000
 
 29 30  0  0  0  0  0  0  0  0999 V2000
   -1.7691   -1.2986   -0.0090 C   0  0  0  0  0  0  0  0  0  0  0  0
   -2.9559   -0.3698   -0.0046 C   0  0  0  0  0  0  0  0  0  0  0  0
   -3.4977    0.0650   -1.1997 C   0  0  0  0  0  0  0  0  0  0  0  0
   -4.5863    0.9170   -1.1956 C   0  0  0  0  0  0  0  0  0  0  0  0
   -5.1333    1.3338    0.0036 C   0  0  0  0  0  0  0  0  0  0  0  0
   -4.5920    0.8982    1.1986 C   0  0  0  0  0  0  0  0  0  0  0  0
   -3.5061    0.0428    1.1945 C   0  0  0  0  0  0  0  0  0  0  0  0
   -0.5442   -0.5188   -0.0007 O   0  0  0  0  0  0  0  0  0  0  0  0
    0.6166   -1.2031   -0.0034 C   0  0  0  0  0  0  0  0  0  0  0  0
    0.6056   -2.4181   -0.0124 O   0  0  0  0  0  0  0  0  0  0  0  0
    1.9003   -0.4774    0.0046 C   0  0  0  0  0  0  0  0  0  0  0  0
    3.1057   -1.1853    0.0018 C   0  0  0  0  0  0  0  0  0  0  0  0
    4.3020   -0.5038    0.0094 C   0  0  0  0  0  0  0  0  0  0  0  0
    4.3123    0.8862    0.0198 C   0  0  0  0  0  0  0  0  0  0  0  0
    5.4936    1.5540    0.0272 O   0  0  0  0  0  0  0  0  0  0  0  0
    3.1159    1.5941    0.0221 C   0  0  0  0  0  0  0  0  0  0  0  0
    1.9152    0.9205    0.0092 C   0  0  0  0  0  0  0  0  0  0  0  0
   -1.8015   -1.9337    0.8762 H   0  0  0  0  0  0  0  0  0  0  0  0
   -1.7978   -1.9205   -0.9037 H   0  0  0  0  0  0  0  0  0  0  0  0
   -3.0703   -0.2606   -2.1365 H   0  0  0  0  0  0  0  0  0  0  0  0
   -5.0092    1.2573   -2.1293 H   0  0  0  0  0  0  0  0  0  0  0  0
   -5.9834    2.0000    0.0067 H   0  0  0  0  0  0  0  0  0  0  0  0
   -5.0192    1.2241    2.1355 H   0  0  0  0  0  0  0  0  0  0  0  0
   -3.0833   -0.2975    2.1282 H   0  0  0  0  0  0  0  0  0  0  0  0
    3.0986   -2.2652   -0.0058 H   0  0  0  0  0  0  0  0  0  0  0  0
    5.2337   -1.0500    0.0076 H   0  0  0  0  0  0  0  0  0  0  0  0
    5.8378    1.7542   -0.8541 H   0  0  0  0  0  0  0  0  0  0  0  0
    3.1283    2.6740    0.0298 H   0  0  0  0  0  0  0  0  0  0  0  0
    0.9861    1.4712    0.0107 H   0  0  0  0  0  0  0  0  0  0  0  0
  1  2  1  0  0  0  0
  2  3  2  0  0  0  0
  3  4  1  0  0  0  0
  4  5  2  0  0  0  0
  5  6  1  0  0  0  0
  6  7  2  0  0  0  0
  2  7  1  0  0  0  0
  1  8  1  0  0  0  0
  8  9  1  0  0  0  0
  9 10  2  0  0  0  0
  9 11  1  0  0  0  0
 11 12  2  0  0  0  0
 12 13  1  0  0  0  0
 13 14  2  0  0  0  0
 14 15  1  0  0  0  0
 14 16  1  0  0  0  0
 16 17  2  0  0  0  0
 11 17  1  0  0  0  0
  1 18  1  0  0  0  0
  1 19  1  0  0  0  0
  3 20  1  0  0  0  0
  4 21  1  0  0  0  0
  5 22  1  0  0  0  0
  6 23  1  0  0  0  0
  7 24  1  0  0  0  0
 12 25  1  0  0  0  0
 13 26  1  0  0  0  0
 15 27  1  0  0  0  0
 16 28  1  0  0  0  0
 17 29  1  0  0  0  0
M  END
$$$$
