C15H16N4O5S
APtclcactv12211717073D 0   0.00000     0.00000
 
 41 43  0  0  0  0  0  0  0  0999 V2000
   -5.8786    1.3483   -0.4238 C   0  0  0  0  0  0  0  0  0  0  0  0
   -6.3514    1.9385    0.9062 C   0  0  0  0  0  0  0  0  0  0  0  0
   -4.5818    0.6937   -0.2342 N   0  0  0  0  0  0  0  0  0  0  0  0
   -4.5400   -0.6065    0.1039 C   0  0  0  0  0  0  0  0  0  0  0  0
   -3.3732   -1.2518    0.2891 N   0  0  0  0  0  0  0  0  0  0  0  0
   -2.1725   -0.5766    0.1323 C   0  0  0  0  0  0  0  0  0  0  0  0
   -0.8943   -0.9356    0.2453 N   0  0  0  0  0  0  0  0  0  0  0  0
   -0.1152    0.0965   -0.0108 C   0  0  0  0  0  0  0  0  0  0  0  0
   -0.8855    1.1800   -0.3043 N   0  0  0  0  0  0  0  0  0  0  0  0
   -2.2016    0.7695   -0.2180 C   0  0  0  0  0  0  0  0  0  0  0  0
   -3.4478    1.4038   -0.4069 C   0  0  0  0  0  0  0  0  0  0  0  0
   -3.4991    2.5800   -0.7197 O   0  0  0  0  0  0  0  0  0  0  0  0
    1.3627    0.0801    0.0171 C   0  0  0  0  0  0  0  0  0  0  0  0
    2.0612   -1.0178   -0.4879 C   0  0  0  0  0  0  0  0  0  0  0  0
    3.4405   -1.0265   -0.4592 C   0  0  0  0  0  0  0  0  0  0  0  0
    4.1313    0.0499    0.0684 C   0  0  0  0  0  0  0  0  0  0  0  0
    3.4450    1.1411    0.5710 C   0  0  0  0  0  0  0  0  0  0  0  0
    2.0659    1.1650    0.5431 C   0  0  0  0  0  0  0  0  0  0  0  0
    5.8929    0.0306    0.1011 S   0  0  0  0  0  0  0  0  0  0  0  0
    6.2848    0.9215    1.1365 O   0  0  0  0  0  0  0  0  0  0  0  0
    6.2800   -1.3361    0.0640 O   0  0  0  0  0  0  0  0  0  0  0  0
    6.3745    0.6493   -1.2034 O   0  0  0  0  0  0  0  0  0  0  0  0
   -3.3722   -2.6697    0.6576 C   0  0  0  0  0  0  0  0  0  0  0  0
   -3.3508   -3.5261   -0.6101 C   0  0  0  0  0  0  0  0  0  0  0  0
   -5.5829   -1.2154    0.2464 O   0  0  0  0  0  0  0  0  0  0  0  0
   -6.6065    0.6174   -0.7762 H   0  0  0  0  0  0  0  0  0  0  0  0
   -5.7789    2.1458   -1.1602 H   0  0  0  0  0  0  0  0  0  0  0  0
   -6.4512    1.1410    1.6426 H   0  0  0  0  0  0  0  0  0  0  0  0
   -5.6236    2.6694    1.2586 H   0  0  0  0  0  0  0  0  0  0  0  0
   -7.3163    2.4255    0.7651 H   0  0  0  0  0  0  0  0  0  0  0  0
   -0.5707    2.0693   -0.5300 H   0  0  0  0  0  0  0  0  0  0  0  0
    1.5231   -1.8588   -0.8997 H   0  0  0  0  0  0  0  0  0  0  0  0
    3.9821   -1.8756   -0.8492 H   0  0  0  0  0  0  0  0  0  0  0  0
    3.9903    1.9780    0.9818 H   0  0  0  0  0  0  0  0  0  0  0  0
    1.5314    2.0176    0.9354 H   0  0  0  0  0  0  0  0  0  0  0  0
    7.3370    0.6878   -1.2887 H   0  0  0  0  0  0  0  0  0  0  0  0
   -2.4896   -2.8883    1.2587 H   0  0  0  0  0  0  0  0  0  0  0  0
   -4.2693   -2.8960    1.2338 H   0  0  0  0  0  0  0  0  0  0  0  0
   -4.2335   -3.3075   -1.2112 H   0  0  0  0  0  0  0  0  0  0  0  0
   -2.4537   -3.2998   -1.1863 H   0  0  0  0  0  0  0  0  0  0  0  0
   -3.3501   -4.5810   -0.3359 H   0  0  0  0  0  0  0  0  0  0  0  0
  1  2  1  0  0  0  0
  1  3  1  0  0  0  0
  3  4  1  0  0  0  0
  4  5  1  0  0  0  0
  5  6  1  0  0  0  0
  6  7  1  0  0  0  0
  7  8  2  0  0  0  0
  8  9  1  0  0  0  0
  9 10  1  0  0  0  0
  6 10  2  0  0  0  0
 10 11  1  0  0  0  0
  3 11  1  0  0  0  0
 11 12  2  0  0  0  0
  8 13  1  0  0  0  0
 13 14  2  0  0  0  0
 14 15  1  0  0  0  0
 15 16  2  0  0  0  0
 16 17  1  0  0  0  0
 17 18  2  0  0  0  0
 13 18  1  0  0  0  0
 16 19  1  0  0  0  0
 19 20  2  0  0  0  0
 19 21  2  0  0  0  0
 19 22  1  0  0  0  0
  5 23  1  0  0  0  0
 23 24  1  0  0  0  0
  4 25  2  0  0  0  0
  1 26  1  0  0  0  0
  1 27  1  0  0  0  0
  2 28  1  0  0  0  0
  2 29  1  0  0  0  0
  2 30  1  0  0  0  0
  9 31  1  0  0  0  0
 14 32  1  0  0  0  0
 15 33  1  0  0  0  0
 17 34  1  0  0  0  0
 18 35  1  0  0  0  0
 22 36  1  0  0  0  0
 23 37  1  0  0  0  0
 23 38  1  0  0  0  0
 24 39  1  0  0  0  0
 24 40  1  0  0  0  0
 24 41  1  0  0  0  0
M  END
$$$$
