C15H19NO5
APtclcactv12211717083D 0   0.00000     0.00000
 
 40 40  0  0  0  0  0  0  0  0999 V2000
    3.3485   -1.8549   -0.5680 C   0  0  0  0  0  0  0  0  0  0  0  0
    3.5701   -3.3429   -0.4788 C   0  0  0  0  0  0  0  0  0  0  0  0
    3.2177   -1.3273   -1.6471 O   0  0  0  0  0  0  0  0  0  0  0  0
    3.2907   -1.1162    0.5522 O   0  0  0  0  0  0  0  0  0  0  0  0
    3.1839    0.2280    0.3989 C   0  0  0  0  0  0  0  0  0  0  0  0
    1.9223    0.8227    0.2596 C   0  0  0  0  0  0  0  0  0  0  0  0
    0.7045   -0.0085    0.2788 C   0  0  0  0  0  0  0  0  0  0  0  0
    0.7929   -1.2126    0.4156 O   0  0  0  0  0  0  0  0  0  0  0  0
   -0.5063    0.5672    0.1445 O   0  0  0  0  0  0  0  0  0  0  0  0
   -1.6613   -0.3123    0.1727 C   0  0  0  0  0  0  0  0  0  0  0  0
   -2.9179    0.5033    0.0095 C   0  0  0  0  0  0  0  0  0  0  0  0
   -2.8471    1.7073   -0.1180 O   0  0  0  0  0  0  0  0  0  0  0  0
   -4.1205   -0.1053    0.0052 N   0  0  0  0  0  0  0  0  0  0  0  0
   -4.2060   -1.5597    0.1592 C   0  0  0  0  0  0  0  0  0  0  0  0
   -4.3200   -1.9095    1.6443 C   0  0  0  0  0  0  0  0  0  0  0  0
   -5.3421    0.6876   -0.1534 C   0  0  0  0  0  0  0  0  0  0  0  0
   -5.6831    0.8071   -1.6401 C   0  0  0  0  0  0  0  0  0  0  0  0
    1.8253    2.2078    0.1029 C   0  0  0  0  0  0  0  0  0  0  0  0
    2.9673    2.9788    0.0863 C   0  0  0  0  0  0  0  0  0  0  0  0
    4.2123    2.3870    0.2239 C   0  0  0  0  0  0  0  0  0  0  0  0
    4.3221    1.0200    0.3852 C   0  0  0  0  0  0  0  0  0  0  0  0
    4.6392   -3.5533   -0.5078 H   0  0  0  0  0  0  0  0  0  0  0  0
    3.1514   -3.7172    0.4554 H   0  0  0  0  0  0  0  0  0  0  0  0
    3.0802   -3.8343   -1.3193 H   0  0  0  0  0  0  0  0  0  0  0  0
   -1.5883   -1.0340   -0.6410 H   0  0  0  0  0  0  0  0  0  0  0  0
   -1.6923   -0.8409    1.1254 H   0  0  0  0  0  0  0  0  0  0  0  0
   -5.0841   -1.9300   -0.3698 H   0  0  0  0  0  0  0  0  0  0  0  0
   -3.3102   -2.0222   -0.2553 H   0  0  0  0  0  0  0  0  0  0  0  0
   -5.2158   -1.4469    2.0587 H   0  0  0  0  0  0  0  0  0  0  0  0
   -4.3836   -2.9916    1.7588 H   0  0  0  0  0  0  0  0  0  0  0  0
   -3.4419   -1.5391    2.1733 H   0  0  0  0  0  0  0  0  0  0  0  0
   -6.1636    0.1979    0.3695 H   0  0  0  0  0  0  0  0  0  0  0  0
   -5.1867    1.6821    0.2648 H   0  0  0  0  0  0  0  0  0  0  0  0
   -4.8616    1.2968   -2.1631 H   0  0  0  0  0  0  0  0  0  0  0  0
   -5.8385   -0.1874   -2.0583 H   0  0  0  0  0  0  0  0  0  0  0  0
   -6.5920    1.3970   -1.7581 H   0  0  0  0  0  0  0  0  0  0  0  0
    0.8569    2.6733   -0.0054 H   0  0  0  0  0  0  0  0  0  0  0  0
    2.8914    4.0493   -0.0348 H   0  0  0  0  0  0  0  0  0  0  0  0
    5.1021    2.9989    0.2090 H   0  0  0  0  0  0  0  0  0  0  0  0
    5.2962    0.5661    0.4921 H   0  0  0  0  0  0  0  0  0  0  0  0
  1  2  1  0  0  0  0
  1  3  2  0  0  0  0
  1  4  1  0  0  0  0
  4  5  1  0  0  0  0
  5  6  2  0  0  0  0
  6  7  1  0  0  0  0
  7  8  2  0  0  0  0
  7  9  1  0  0  0  0
  9 10  1  0  0  0  0
 10 11  1  0  0  0  0
 11 12  2  0  0  0  0
 11 13  1  0  0  0  0
 13 14  1  0  0  0  0
 14 15  1  0  0  0  0
 13 16  1  0  0  0  0
 16 17  1  0  0  0  0
  6 18  1  0  0  0  0
 18 19  2  0  0  0  0
 19 20  1  0  0  0  0
 20 21  2  0  0  0  0
  5 21  1  0  0  0  0
  2 22  1  0  0  0  0
  2 23  1  0  0  0  0
  2 24  1  0  0  0  0
 10 25  1  0  0  0  0
 10 26  1  0  0  0  0
 14 27  1  0  0  0  0
 14 28  1  0  0  0  0
 15 29  1  0  0  0  0
 15 30  1  0  0  0  0
 15 31  1  0  0  0  0
 16 32  1  0  0  0  0
 16 33  1  0  0  0  0
 17 34  1  0  0  0  0
 17 35  1  0  0  0  0
 17 36  1  0  0  0  0
 18 37  1  0  0  0  0
 19 38  1  0  0  0  0
 20 39  1  0  0  0  0
 21 40  1  0  0  0  0
M  END
$$$$
