C18H18ClNO5
APtclcactv12211717163D 0   0.00000     0.00000
 
 43 44  0  0  0  0  0  0  0  0999 V2000
    1.1561    1.2812   -2.2931 C   0  0  0  0  0  0  0  0  0  0  0  0
    1.7323    2.2061   -1.4417 C   0  0  0  0  0  0  0  0  0  0  0  0
   -3.8652    0.4526   -0.4805 C   0  0  0  0  0  0  0  0  0  0  0  0
   -2.5616    1.0406    1.4649 C   0  0  0  0  0  0  0  0  0  0  0  0
   -4.7055    1.5177   -0.2305 C   0  0  0  0  0  0  0  0  0  0  0  0
   -3.4097    2.1022    1.7034 C   0  0  0  0  0  0  0  0  0  0  0  0
   -4.4788    2.3410    0.8581 C   0  0  0  0  0  0  0  0  0  0  0  0
   -0.3654   -3.4448    0.9733 C   0  0  0  0  0  0  0  0  0  0  0  0
    3.5579   -0.2333    1.7663 C   0  0  0  0  0  0  0  0  0  0  0  0
    0.0263   -0.4680   -4.0141 C   0  0  0  0  0  0  0  0  0  0  0  0
    0.5457   -3.8676    2.1275 C   0  0  0  0  0  0  0  0  0  0  0  0
    1.2816   -0.3892   -0.5587 C   0  0  0  0  0  0  0  0  0  0  0  0
    1.8660    0.5552    0.2966 C   0  0  0  0  0  0  0  0  0  0  0  0
    0.9271   -0.0152   -1.8629 C   0  0  0  0  0  0  0  0  0  0  0  0
    2.0863    1.8480   -0.1537 C   0  0  0  0  0  0  0  0  0  0  0  0
   -2.7843    0.2062    0.3680 C   0  0  0  0  0  0  0  0  0  0  0  0
    1.8552   -2.6396   -0.3330 O   0  0  0  0  0  0  0  0  0  0  0  0
   -2.0769   -1.6581   -0.8488 O   0  0  0  0  0  0  0  0  0  0  0  0
    1.0433   -1.7658   -0.0913 C   0  0  0  0  0  0  0  0  0  0  0  0
   -1.8803   -0.9331    0.1066 C   0  0  0  0  0  0  0  0  0  0  0  0
    2.2137    0.2058    1.5609 O   0  0  0  0  0  0  0  0  0  0  0  0
    0.3611   -0.9203   -2.7005 O   0  0  0  0  0  0  0  0  0  0  0  0
   -0.8409   -1.1676    0.9252 O   0  0  0  0  0  0  0  0  0  0  0  0
    2.8099    3.0205    0.9025 Cl  0  0  0  0  0  0  0  0  0  0  0  0
   -0.0738   -2.0575    0.6040 N   0  0  0  0  0  0  0  0  0  0  0  0
    0.8796    1.5722   -3.2958 H   0  0  0  0  0  0  0  0  0  0  0  0
    1.9075    3.2149   -1.7851 H   0  0  0  0  0  0  0  0  0  0  0  0
    3.7280   -0.3975    2.8303 H   0  0  0  0  0  0  0  0  0  0  0  0
    3.7229   -1.1643    1.2240 H   0  0  0  0  0  0  0  0  0  0  0  0
    4.2483    0.5271    1.4011 H   0  0  0  0  0  0  0  0  0  0  0  0
   -0.6872    0.3531   -3.9448 H   0  0  0  0  0  0  0  0  0  0  0  0
    0.9280   -0.1240   -4.5207 H   0  0  0  0  0  0  0  0  0  0  0  0
   -0.4173   -1.2881   -4.5787 H   0  0  0  0  0  0  0  0  0  0  0  0
   -0.1899   -4.0938    0.1153 H   0  0  0  0  0  0  0  0  0  0  0  0
   -1.4070   -3.5269    1.2839 H   0  0  0  0  0  0  0  0  0  0  0  0
    0.3287   -4.8999    2.4022 H   0  0  0  0  0  0  0  0  0  0  0  0
    1.5873   -3.7856    1.8169 H   0  0  0  0  0  0  0  0  0  0  0  0
    0.3702   -3.2187    2.9854 H   0  0  0  0  0  0  0  0  0  0  0  0
   -4.0456   -0.1917   -1.3283 H   0  0  0  0  0  0  0  0  0  0  0  0
   -1.7271    0.8556    2.1250 H   0  0  0  0  0  0  0  0  0  0  0  0
   -5.5420    1.7095   -0.8861 H   0  0  0  0  0  0  0  0  0  0  0  0
   -3.2386    2.7485    2.5516 H   0  0  0  0  0  0  0  0  0  0  0  0
   -5.1393    3.1739    1.0490 H   0  0  0  0  0  0  0  0  0  0  0  0
 12 13  2  0  0  0  0
 12 14  1  0  0  0  0
 12 19  1  0  0  0  0
 13 15  1  0  0  0  0
 13 21  1  0  0  0  0
  1 14  2  0  0  0  0
 14 22  1  0  0  0  0
 19 25  1  0  0  0  0
 17 19  2  0  0  0  0
  2 15  2  0  0  0  0
 15 24  1  0  0  0  0
  9 21  1  0  0  0  0
  1  2  1  0  0  0  0
 10 22  1  0  0  0  0
 23 25  1  0  0  0  0
  8 25  1  0  0  0  0
 20 23  1  0  0  0  0
  8 11  1  0  0  0  0
 16 20  1  0  0  0  0
 18 20  2  0  0  0  0
  3 16  2  0  0  0  0
  4 16  1  0  0  0  0
  3  5  1  0  0  0  0
  4  6  2  0  0  0  0
  5  7  2  0  0  0  0
  6  7  1  0  0  0  0
  1 26  1  0  0  0  0
  2 27  1  0  0  0  0
  9 28  1  0  0  0  0
  9 29  1  0  0  0  0
  9 30  1  0  0  0  0
 10 31  1  0  0  0  0
 10 32  1  0  0  0  0
 10 33  1  0  0  0  0
  8 34  1  0  0  0  0
  8 35  1  0  0  0  0
 11 36  1  0  0  0  0
 11 37  1  0  0  0  0
 11 38  1  0  0  0  0
  3 39  1  0  0  0  0
  4 40  1  0  0  0  0
  5 41  1  0  0  0  0
  6 42  1  0  0  0  0
  7 43  1  0  0  0  0
M  END
$$$$
