C15H14ClN3O4S3
APtclcactv12211717063D 0   0.00000     0.00000
 
 40 42  0  0  0  0  0  0  0  0999 V2000
    2.4103   -1.7593    0.2864 C   0  0  0  0  0  0  0  0  0  0  0  0
    2.8027    0.9706   -0.0109 C   0  0  0  0  0  0  0  0  0  0  0  0
   -6.8686   -0.4275   -1.4748 C   0  0  0  0  0  0  0  0  0  0  0  0
   -7.1640   -0.2030    0.8905 C   0  0  0  0  0  0  0  0  0  0  0  0
   -8.0233    0.3019   -1.6883 C   0  0  0  0  0  0  0  0  0  0  0  0
   -8.3187    0.5264    0.6771 C   0  0  0  0  0  0  0  0  0  0  0  0
   -8.7482    0.7790   -0.6123 C   0  0  0  0  0  0  0  0  0  0  0  0
   -2.3625   -1.4735    0.3988 C   0  0  0  0  0  0  0  0  0  0  0  0
   -5.1800   -1.4748    0.0473 C   0  0  0  0  0  0  0  0  0  0  0  0
   -0.0129   -2.2639    1.0609 H   0  0  0  0  0  0  0  0  0  0  0  0
    6.0519   -0.0745    1.6001 H   0  0  0  0  0  0  0  0  0  0  0  0
    7.3624    0.6521    0.8403 H   0  0  0  0  0  0  0  0  0  0  0  0
    3.6713   -1.2640    0.0136 C   0  0  0  0  0  0  0  0  0  0  0  0
    3.8699    0.0979   -0.1346 C   0  0  0  0  0  0  0  0  0  0  0  0
   -6.4388   -0.6797   -0.1854 C   0  0  0  0  0  0  0  0  0  0  0  0
    0.2128    2.0972    1.7335 O   0  0  0  0  0  0  0  0  0  0  0  0
    0.1429    2.3698   -0.7527 O   0  0  0  0  0  0  0  0  0  0  0  0
    5.9918   -0.0614   -1.5523 O   0  0  0  0  0  0  0  0  0  0  0  0
    5.3608    2.1352   -0.5403 O   0  0  0  0  0  0  0  0  0  0  0  0
   -1.0858   -0.6772    0.4824 C   0  0  0  0  0  0  0  0  0  0  0  0
    1.3362   -0.8871    0.4126 C   0  0  0  0  0  0  0  0  0  0  0  0
    1.5454    0.4795    0.2596 C   0  0  0  0  0  0  0  0  0  0  0  0
    5.0126   -2.3548   -0.1435 Cl  0  0  0  0  0  0  0  0  0  0  0  0
    6.4295    0.3866    0.8348 N   0  0  0  0  0  0  0  0  0  0  0  0
    5.4814    0.7206   -0.4812 S   0  0  0  0  0  0  0  0  0  0  0  0
   -3.7586   -0.3499    0.1177 S   0  0  0  0  0  0  0  0  0  0  0  0
    0.0607   -1.3700    0.6913 N   0  0  0  0  0  0  0  0  0  0  0  0
   -1.1817    0.5952    0.3490 N   0  0  0  0  0  0  0  0  0  0  0  0
    0.1628    1.5637    0.4174 S   0  0  0  0  0  0  0  0  0  0  0  0
    2.2593   -2.8229    0.3970 H   0  0  0  0  0  0  0  0  0  0  0  0
    2.9557    2.0334   -0.1271 H   0  0  0  0  0  0  0  0  0  0  0  0
   -2.2951   -2.1827   -0.4263 H   0  0  0  0  0  0  0  0  0  0  0  0
   -2.5145   -2.0155    1.3322 H   0  0  0  0  0  0  0  0  0  0  0  0
   -5.2615   -2.0167    0.9895 H   0  0  0  0  0  0  0  0  0  0  0  0
   -5.0420   -2.1839   -0.7690 H   0  0  0  0  0  0  0  0  0  0  0  0
   -6.3046   -0.8040   -2.3154 H   0  0  0  0  0  0  0  0  0  0  0  0
   -6.8283   -0.4000    1.8979 H   0  0  0  0  0  0  0  0  0  0  0  0
   -8.3588    0.4993   -2.6957 H   0  0  0  0  0  0  0  0  0  0  0  0
   -8.8855    0.8985    1.5177 H   0  0  0  0  0  0  0  0  0  0  0  0
   -9.6500    1.3495   -0.7791 H   0  0  0  0  0  0  0  0  0  0  0  0
 21 22  2  0  0  0  0
 21 27  1  0  0  0  0
  1 21  1  0  0  0  0
  2 22  1  0  0  0  0
 22 29  1  0  0  0  0
 20 27  1  0  0  0  0
  1 13  2  0  0  0  0
  2 14  2  0  0  0  0
 28 29  1  0  0  0  0
 16 29  2  0  0  0  0
 17 29  2  0  0  0  0
  8 20  1  0  0  0  0
 13 23  1  0  0  0  0
 14 25  1  0  0  0  0
  8 26  1  0  0  0  0
 24 25  1  0  0  0  0
 18 25  2  0  0  0  0
 19 25  2  0  0  0  0
  9 26  1  0  0  0  0
  9 15  1  0  0  0  0
  3 15  2  0  0  0  0
  4 15  1  0  0  0  0
  3  5  1  0  0  0  0
  4  6  2  0  0  0  0
  5  7  2  0  0  0  0
 20 28  2  0  0  0  0
 13 14  1  0  0  0  0
  6  7  1  0  0  0  0
  1 30  1  0  0  0  0
  2 31  1  0  0  0  0
  8 32  1  0  0  0  0
  8 33  1  0  0  0  0
 11 24  1  0  0  0  0
 12 24  1  0  0  0  0
  9 34  1  0  0  0  0
  9 35  1  0  0  0  0
  3 36  1  0  0  0  0
  4 37  1  0  0  0  0
  5 38  1  0  0  0  0
  6 39  1  0  0  0  0
  7 40  1  0  0  0  0
 10 27  1  0  0  0  0
M  END
$$$$
