C11H11NO5
APtclcactv12211717323D 0   0.00000     0.00000
 
 28 28  0  0  0  0  0  0  0  0999 V2000
    2.4124   -1.7581   -0.2944 C   0  0  0  0  0  0  0  0  0  0  0  0
    2.8023   -3.1877   -0.0201 C   0  0  0  0  0  0  0  0  0  0  0  0
    2.2497   -1.3839   -1.4316 O   0  0  0  0  0  0  0  0  0  0  0  0
    2.2404   -0.9014    0.7256 O   0  0  0  0  0  0  0  0  0  0  0  0
    1.9828    0.3923    0.4068 C   0  0  0  0  0  0  0  0  0  0  0  0
    0.6650    0.8127    0.1807 C   0  0  0  0  0  0  0  0  0  0  0  0
   -0.4486   -0.1479    0.2877 C   0  0  0  0  0  0  0  0  0  0  0  0
   -0.2251   -1.3077    0.5727 O   0  0  0  0  0  0  0  0  0  0  0  0
   -1.7140    0.2605    0.0694 O   0  0  0  0  0  0  0  0  0  0  0  0
   -2.7597   -0.7393    0.1921 C   0  0  0  0  0  0  0  0  0  0  0  0
   -4.0976   -0.1034   -0.0849 C   0  0  0  0  0  0  0  0  0  0  0  0
   -4.1633    1.0762   -0.3587 O   0  0  0  0  0  0  0  0  0  0  0  0
   -5.2212   -0.8457   -0.0283 N   0  0  0  0  0  0  0  0  0  0  0  0
    0.4126    2.1476   -0.1464 C   0  0  0  0  0  0  0  0  0  0  0  0
    1.4577    3.0403   -0.2444 C   0  0  0  0  0  0  0  0  0  0  0  0
    2.7588    2.6205   -0.0205 C   0  0  0  0  0  0  0  0  0  0  0  0
    3.0217    1.3055    0.3091 C   0  0  0  0  0  0  0  0  0  0  0  0
    3.8889   -3.2725   -0.0104 H   0  0  0  0  0  0  0  0  0  0  0  0
    2.4054   -3.4932    0.9481 H   0  0  0  0  0  0  0  0  0  0  0  0
    2.3945   -3.8315   -0.7994 H   0  0  0  0  0  0  0  0  0  0  0  0
   -2.5826   -1.5403   -0.5256 H   0  0  0  0  0  0  0  0  0  0  0  0
   -2.7542   -1.1488    1.2023 H   0  0  0  0  0  0  0  0  0  0  0  0
   -5.1687   -1.7891    0.1907 H   0  0  0  0  0  0  0  0  0  0  0  0
   -6.0823   -0.4364   -0.2066 H   0  0  0  0  0  0  0  0  0  0  0  0
   -0.6001    2.4791   -0.3225 H   0  0  0  0  0  0  0  0  0  0  0  0
    1.2617    4.0718   -0.4973 H   0  0  0  0  0  0  0  0  0  0  0  0
    3.5720    3.3268   -0.1001 H   0  0  0  0  0  0  0  0  0  0  0  0
    4.0387    0.9860    0.4825 H   0  0  0  0  0  0  0  0  0  0  0  0
  1  2  1  0  0  0  0
  1  3  2  0  0  0  0
  1  4  1  0  0  0  0
  4  5  1  0  0  0  0
  5  6  2  0  0  0  0
  6  7  1  0  0  0  0
  7  8  2  0  0  0  0
  7  9  1  0  0  0  0
  9 10  1  0  0  0  0
 10 11  1  0  0  0  0
 11 12  2  0  0  0  0
 11 13  1  0  0  0  0
  6 14  1  0  0  0  0
 14 15  2  0  0  0  0
 15 16  1  0  0  0  0
 16 17  2  0  0  0  0
  5 17  1  0  0  0  0
  2 18  1  0  0  0  0
  2 19  1  0  0  0  0
  2 20  1  0  0  0  0
 10 21  1  0  0  0  0
 10 22  1  0  0  0  0
 13 23  1  0  0  0  0
 13 24  1  0  0  0  0
 14 25  1  0  0  0  0
 15 26  1  0  0  0  0
 16 27  1  0  0  0  0
 17 28  1  0  0  0  0
M  END
$$$$
