C8H10O3S
APtclcactv12151716333D 0   0.00000     0.00000
 
 22 22  0  0  0  0  0  0  0  0999 V2000
   -2.0435   -1.2818    0.0245 C   0  0  0  0  0  0  0  0  0  0  0  0
   -2.9688   -2.1009   -0.8776 C   0  0  0  0  0  0  0  0  0  0  0  0
   -1.7617   -0.0262   -0.5968 O   0  0  0  0  0  0  0  0  0  0  0  0
   -0.8447    0.8754    0.2172 S   0  0  0  0  0  0  0  0  0  0  0  0
   -0.8348    2.1356   -0.4393 O   0  0  0  0  0  0  0  0  0  0  0  0
   -1.2235    0.7103    1.5769 O   0  0  0  0  0  0  0  0  0  0  0  0
    0.7871    0.2263    0.0730 C   0  0  0  0  0  0  0  0  0  0  0  0
    1.6133    0.6544   -0.9492 C   0  0  0  0  0  0  0  0  0  0  0  0
    2.8934    0.1452   -1.0624 C   0  0  0  0  0  0  0  0  0  0  0  0
    3.3475   -0.7918   -0.1531 C   0  0  0  0  0  0  0  0  0  0  0  0
    2.5216   -1.2191    0.8697 C   0  0  0  0  0  0  0  0  0  0  0  0
    1.2429   -0.7067    0.9854 C   0  0  0  0  0  0  0  0  0  0  0  0
   -2.5302   -1.1109    0.9847 H   0  0  0  0  0  0  0  0  0  0  0  0
   -1.1126   -1.8269    0.1808 H   0  0  0  0  0  0  0  0  0  0  0  0
   -2.4822   -2.2718   -1.8379 H   0  0  0  0  0  0  0  0  0  0  0  0
   -3.1838   -3.0587   -0.4037 H   0  0  0  0  0  0  0  0  0  0  0  0
   -3.8997   -1.5558   -1.0339 H   0  0  0  0  0  0  0  0  0  0  0  0
    1.2586    1.3864   -1.6597 H   0  0  0  0  0  0  0  0  0  0  0  0
    3.5387    0.4791   -1.8615 H   0  0  0  0  0  0  0  0  0  0  0  0
    4.3474   -1.1901   -0.2419 H   0  0  0  0  0  0  0  0  0  0  0  0
    2.8762   -1.9514    1.5800 H   0  0  0  0  0  0  0  0  0  0  0  0
    0.5976   -1.0406    1.7845 H   0  0  0  0  0  0  0  0  0  0  0  0
  1  2  1  0  0  0  0
  1  3  1  0  0  0  0
  3  4  1  0  0  0  0
  4  5  2  0  0  0  0
  4  6  2  0  0  0  0
  4  7  1  0  0  0  0
  7  8  2  0  0  0  0
  8  9  1  0  0  0  0
  9 10  2  0  0  0  0
 10 11  1  0  0  0  0
 11 12  2  0  0  0  0
  7 12  1  0  0  0  0
  1 13  1  0  0  0  0
  1 14  1  0  0  0  0
  2 15  1  0  0  0  0
  2 16  1  0  0  0  0
  2 17  1  0  0  0  0
  8 18  1  0  0  0  0
  9 19  1  0  0  0  0
 10 20  1  0  0  0  0
 11 21  1  0  0  0  0
 12 22  1  0  0  0  0
M  END
$$$$
