C5H11NO2
APtclcactv12211716453D 0   0.00000     0.00000
 
 19 18  0  0  0  0  0  0  0  0999 V2000
    0.1377   -0.9585   -0.0398 C   0  0  0  0  0  0  0  0  0  0  0  0
   -1.0294    0.7987   -1.1821 C   0  0  0  0  0  0  0  0  0  0  0  0
   -2.2595   -0.8827    0.0072 C   0  0  0  0  0  0  0  0  0  0  0  0
   -0.9838    0.7503    1.2158 C   0  0  0  0  0  0  0  0  0  0  0  0
    2.4857   -0.6751    0.0033 O   0  0  0  0  0  0  0  0  0  0  0  0
    1.3956   -0.1291   -0.0097 C   0  0  0  0  0  0  0  0  0  0  0  0
    1.3232    1.0879    0.0016 O   0  5  0  0  0  0  0  0  0  0  0  0
   -1.0337   -0.0731    0.0003 N   0  3  0  0  0  0  0  0  0  0  0  0
    0.1146   -1.5504   -0.9548 H   0  0  0  0  0  0  0  0  0  0  0  0
    0.1203   -1.6235    0.8236 H   0  0  0  0  0  0  0  0  0  0  0  0
   -0.8921    0.1942   -2.0787 H   0  0  0  0  0  0  0  0  0  0  0  0
   -1.9785    1.3310   -1.2446 H   0  0  0  0  0  0  0  0  0  0  0  0
   -0.2142    1.5177   -1.1004 H   0  0  0  0  0  0  0  0  0  0  0  0
   -2.2627   -1.5295    0.8845 H   0  0  0  0  0  0  0  0  0  0  0  0
   -3.1287   -0.2257    0.0370 H   0  0  0  0  0  0  0  0  0  0  0  0
   -2.2965   -1.4936   -0.8947 H   0  0  0  0  0  0  0  0  0  0  0  0
   -0.1467    1.4452    1.1498 H   0  0  0  0  0  0  0  0  0  0  0  0
   -1.9139    1.3101    1.3139 H   0  0  0  0  0  0  0  0  0  0  0  0
   -0.8538    0.1064    2.0857 H   0  0  0  0  0  0  0  0  0  0  0  0
  6  7  1  0  0  0  0
  5  6  2  0  0  0  0
  1  8  1  0  0  0  0
  2  8  1  0  0  0  0
  3  8  1  0  0  0  0
  4  8  1  0  0  0  0
  1  6  1  0  0  0  0
  1  9  1  0  0  0  0
  1 10  1  0  0  0  0
  2 11  1  0  0  0  0
  2 12  1  0  0  0  0
  2 13  1  0  0  0  0
  3 14  1  0  0  0  0
  3 15  1  0  0  0  0
  3 16  1  0  0  0  0
  4 17  1  0  0  0  0
  4 18  1  0  0  0  0
  4 19  1  0  0  0  0
M  CHG  2   7  -1   8   1
M  END
$$$$
