C11H13ClO3
APtclcactv12211717333D 0   0.00000     0.00000
 
 28 28  0  0  0  0  0  0  0  0999 V2000
    1.2381    0.9857   -0.0005 C   0  0  0  0  0  0  0  0  0  0  0  0
    3.2074   -0.9607   -0.0002 C   0  0  0  0  0  0  0  0  0  0  0  0
    2.5702    1.3507   -0.0004 C   0  0  0  0  0  0  0  0  0  0  0  0
   -1.3866    0.3373   -0.0004 C   0  0  0  0  0  0  0  0  0  0  0  0
   -2.7956   -0.2590    0.0000 C   0  0  0  0  0  0  0  0  0  0  0  0
   -3.8274    0.8707   -0.0002 C   0  0  0  0  0  0  0  0  0  0  0  0
    1.4979   -2.7886    0.0002 C   0  0  0  0  0  0  0  0  0  0  0  0
    0.8875   -0.3567   -0.0005 C   0  0  0  0  0  0  0  0  0  0  0  0
    1.8760   -1.3298   -0.0004 C   0  0  0  0  0  0  0  0  0  0  0  0
    3.5550    0.3784   -0.0002 C   0  0  0  0  0  0  0  0  0  0  0  0
   -5.3638   -0.9157    0.0006 O   0  0  0  0  0  0  0  0  0  0  0  0
   -6.2864    1.0924    0.0001 O   0  0  0  0  0  0  0  0  0  0  0  0
   -5.2153    0.2834    0.0002 C   0  0  0  0  0  0  0  0  0  0  0  0
   -0.4228   -0.7179   -0.0002 O   0  0  0  0  0  0  0  0  0  0  0  0
   -7.1560    0.6694    0.0004 H   0  0  0  0  0  0  0  0  0  0  0  0
    5.2286    0.8396    0.0005 Cl  0  0  0  0  0  0  0  0  0  0  0  0
    0.4698    1.7448    0.0039 H   0  0  0  0  0  0  0  0  0  0  0  0
    3.9774   -1.7180    0.0003 H   0  0  0  0  0  0  0  0  0  0  0  0
    1.4066   -3.1406   -1.0274 H   0  0  0  0  0  0  0  0  0  0  0  0
    2.2684   -3.3634    0.5141 H   0  0  0  0  0  0  0  0  0  0  0  0
    0.5453   -2.9169    0.5142 H   0  0  0  0  0  0  0  0  0  0  0  0
    2.8434    2.3955   -0.0008 H   0  0  0  0  0  0  0  0  0  0  0  0
   -1.2523    0.9518   -0.8906 H   0  0  0  0  0  0  0  0  0  0  0  0
   -1.2521    0.9523    0.8894 H   0  0  0  0  0  0  0  0  0  0  0  0
   -2.9301   -0.8741   -0.8898 H   0  0  0  0  0  0  0  0  0  0  0  0
   -2.9298   -0.8735    0.8902 H   0  0  0  0  0  0  0  0  0  0  0  0
   -3.6929    1.4858    0.8896 H   0  0  0  0  0  0  0  0  0  0  0  0
   -3.6932    1.4852   -0.8904 H   0  0  0  0  0  0  0  0  0  0  0  0
  8  9  2  0  0  0  0
  1  8  1  0  0  0  0
  8 14  1  0  0  0  0
  2  9  1  0  0  0  0
  7  9  1  0  0  0  0
  1  3  2  0  0  0  0
  4 14  1  0  0  0  0
  2 10  2  0  0  0  0
  4  5  1  0  0  0  0
 10 16  1  0  0  0  0
  5  6  1  0  0  0  0
  6 13  1  0  0  0  0
 12 13  1  0  0  0  0
 11 13  2  0  0  0  0
  3 10  1  0  0  0  0
  1 17  1  0  0  0  0
  2 18  1  0  0  0  0
  7 19  1  0  0  0  0
  7 20  1  0  0  0  0
  7 21  1  0  0  0  0
  3 22  1  0  0  0  0
  4 23  1  0  0  0  0
  4 24  1  0  0  0  0
  5 25  1  0  0  0  0
  5 26  1  0  0  0  0
  6 27  1  0  0  0  0
  6 28  1  0  0  0  0
 12 15  1  0  0  0  0
M  END
$$$$
