C9H11N3O
APtclcactv12151716463D 0   0.00000     0.00000
 
 24 24  0  0  0  0  0  0  0  0999 V2000
    1.6994    0.9760   -0.0001 N   0  0  0  0  0  0  0  0  0  0  0  0
    1.4813   -0.3300   -0.0001 C   0  0  0  0  0  0  0  0  0  0  0  0
    2.5457   -1.2256    0.0002 C   0  0  0  0  0  0  0  0  0  0  0  0
    3.8389   -0.7337    0.0002 C   0  0  0  0  0  0  0  0  0  0  0  0
    4.0242    0.6422   -0.0002 C   0  0  0  0  0  0  0  0  0  0  0  0
    2.9210    1.4733   -0.0001 C   0  0  0  0  0  0  0  0  0  0  0  0
    0.1756   -0.8110   -0.0001 N   0  0  0  0  0  0  0  0  0  0  0  0
   -0.8158    0.0144   -0.0000 N   0  0  0  0  0  0  0  0  0  0  0  0
   -2.0422   -0.4373   -0.0000 C   0  0  0  0  0  0  0  0  0  0  0  0
   -2.2981   -1.9224   -0.0001 C   0  0  0  0  0  0  0  0  0  0  0  0
   -3.1252    0.4644    0.0001 C   0  0  0  0  0  0  0  0  0  0  0  0
   -4.2649    0.0446    0.0001 O   0  0  0  0  0  0  0  0  0  0  0  0
   -2.8692    1.9495    0.0002 C   0  0  0  0  0  0  0  0  0  0  0  0
    2.3651   -2.2904    0.0009 H   0  0  0  0  0  0  0  0  0  0  0  0
    4.6850   -1.4049    0.0008 H   0  0  0  0  0  0  0  0  0  0  0  0
    5.0208    1.0585    0.0002 H   0  0  0  0  0  0  0  0  0  0  0  0
    3.0605    2.5443   -0.0004 H   0  0  0  0  0  0  0  0  0  0  0  0
    0.0108   -1.7669   -0.0002 H   0  0  0  0  0  0  0  0  0  0  0  0
   -2.3598   -2.2805    1.0275 H   0  0  0  0  0  0  0  0  0  0  0  0
   -3.2369   -2.1292   -0.5140 H   0  0  0  0  0  0  0  0  0  0  0  0
   -1.4828   -2.4316   -0.5140 H   0  0  0  0  0  0  0  0  0  0  0  0
   -2.8075    2.3076   -1.0275 H   0  0  0  0  0  0  0  0  0  0  0  0
   -3.6845    2.4587    0.5141 H   0  0  0  0  0  0  0  0  0  0  0  0
   -1.9304    2.1564    0.5140 H   0  0  0  0  0  0  0  0  0  0  0  0
  1  2  2  0  0  0  0
  2  3  1  0  0  0  0
  3  4  2  0  0  0  0
  4  5  1  0  0  0  0
  5  6  2  0  0  0  0
  1  6  1  0  0  0  0
  2  7  1  0  0  0  0
  7  8  1  0  0  0  0
  8  9  2  0  0  0  0
  9 10  1  0  0  0  0
  9 11  1  0  0  0  0
 11 12  2  0  0  0  0
 11 13  1  0  0  0  0
  3 14  1  0  0  0  0
  4 15  1  0  0  0  0
  5 16  1  0  0  0  0
  6 17  1  0  0  0  0
  7 18  1  0  0  0  0
 10 19  1  0  0  0  0
 10 20  1  0  0  0  0
 10 21  1  0  0  0  0
 13 22  1  0  0  0  0
 13 23  1  0  0  0  0
 13 24  1  0  0  0  0
M  END
$$$$
