C8H18O
APtclcactv12151716403D 0   0.00000     0.00000
 
 27 26  0  0  0  0  0  0  0  0999 V2000
   -2.4449    1.4538    0.1408 C   0  0  0  0  0  0  0  0  0  0  0  0
   -2.4118    0.0088   -0.3612 C   0  0  0  0  0  0  0  0  0  0  0  0
   -1.1985   -0.7097    0.2324 C   0  0  0  0  0  0  0  0  0  0  0  0
   -0.0000   -0.1097   -0.2633 O   0  0  0  0  0  0  0  0  0  0  0  0
    1.1985   -0.7097    0.2324 C   0  0  0  0  0  0  0  0  0  0  0  0
    2.4118    0.0088   -0.3612 C   0  0  0  0  0  0  0  0  0  0  0  0
    2.4449    1.4538    0.1408 C   0  0  0  0  0  0  0  0  0  0  0  0
    3.6916   -0.7103    0.0699 C   0  0  0  0  0  0  0  0  0  0  0  0
   -3.6916   -0.7103    0.0699 C   0  0  0  0  0  0  0  0  0  0  0  0
   -1.5331    1.9661   -0.1663 H   0  0  0  0  0  0  0  0  0  0  0  0
   -3.3093    1.9656   -0.2821 H   0  0  0  0  0  0  0  0  0  0  0  0
   -2.5158    1.4589    1.2285 H   0  0  0  0  0  0  0  0  0  0  0  0
   -2.3409    0.0037   -1.4489 H   0  0  0  0  0  0  0  0  0  0  0  0
   -1.2233   -0.6276    1.3190 H   0  0  0  0  0  0  0  0  0  0  0  0
   -1.2233   -1.7613   -0.0532 H   0  0  0  0  0  0  0  0  0  0  0  0
    1.2233   -0.6276    1.3190 H   0  0  0  0  0  0  0  0  0  0  0  0
    1.2233   -1.7613   -0.0532 H   0  0  0  0  0  0  0  0  0  0  0  0
    2.3409    0.0037   -1.4489 H   0  0  0  0  0  0  0  0  0  0  0  0
    3.3093    1.9656   -0.2821 H   0  0  0  0  0  0  0  0  0  0  0  0
    1.5331    1.9661   -0.1663 H   0  0  0  0  0  0  0  0  0  0  0  0
    2.5158    1.4589    1.2285 H   0  0  0  0  0  0  0  0  0  0  0  0
    3.6681   -1.7397   -0.2878 H   0  0  0  0  0  0  0  0  0  0  0  0
    4.5561   -0.1984   -0.3531 H   0  0  0  0  0  0  0  0  0  0  0  0
    3.7626   -0.7051    1.1575 H   0  0  0  0  0  0  0  0  0  0  0  0
   -4.5561   -0.1984   -0.3531 H   0  0  0  0  0  0  0  0  0  0  0  0
   -3.6681   -1.7397   -0.2878 H   0  0  0  0  0  0  0  0  0  0  0  0
   -3.7626   -0.7051    1.1575 H   0  0  0  0  0  0  0  0  0  0  0  0
  1  2  1  0  0  0  0
  2  3  1  0  0  0  0
  3  4  1  0  0  0  0
  4  5  1  0  0  0  0
  5  6  1  0  0  0  0
  6  7  1  0  0  0  0
  6  8  1  0  0  0  0
  2  9  1  0  0  0  0
  1 10  1  0  0  0  0
  1 11  1  0  0  0  0
  1 12  1  0  0  0  0
  2 13  1  0  0  0  0
  3 14  1  0  0  0  0
  3 15  1  0  0  0  0
  5 16  1  0  0  0  0
  5 17  1  0  0  0  0
  6 18  1  0  0  0  0
  7 19  1  0  0  0  0
  7 20  1  0  0  0  0
  7 21  1  0  0  0  0
  8 22  1  0  0  0  0
  8 23  1  0  0  0  0
  8 24  1  0  0  0  0
  9 25  1  0  0  0  0
  9 26  1  0  0  0  0
  9 27  1  0  0  0  0
M  END
$$$$
