C2H5N3O2
APtclcactv12101715343D 0   0.00000     0.00000
 
 12 11  0  0  0  0  0  0  0  0999 V2000
    2.3344   -0.7245   -0.0002 N   0  0  0  0  0  0  0  0  0  0  0  0
    1.1672   -0.0506   -0.0001 C   0  0  0  0  0  0  0  0  0  0  0  0
    1.1672    1.1648    0.0000 O   0  0  0  0  0  0  0  0  0  0  0  0
   -0.0000   -0.7245   -0.0001 N   0  0  0  0  0  0  0  0  0  0  0  0
   -1.1672   -0.0506   -0.0000 C   0  0  0  0  0  0  0  0  0  0  0  0
   -1.1672    1.1648    0.0001 O   0  0  0  0  0  0  0  0  0  0  0  0
   -2.3344   -0.7245   -0.0000 N   0  0  0  0  0  0  0  0  0  0  0  0
    3.1744   -0.2395   -0.0002 H   0  0  0  0  0  0  0  0  0  0  0  0
    2.3344   -1.6945    0.0038 H   0  0  0  0  0  0  0  0  0  0  0  0
   -0.0000   -1.6945   -0.0002 H   0  0  0  0  0  0  0  0  0  0  0  0
   -2.3344   -1.6945   -0.0001 H   0  0  0  0  0  0  0  0  0  0  0  0
   -3.1744   -0.2395    0.0001 H   0  0  0  0  0  0  0  0  0  0  0  0
  1  2  1  0  0  0  0
  2  3  2  0  0  0  0
  2  4  1  0  0  0  0
  4  5  1  0  0  0  0
  5  6  2  0  0  0  0
  5  7  1  0  0  0  0
  1  8  1  0  0  0  0
  1  9  1  0  0  0  0
  4 10  1  0  0  0  0
  7 11  1  0  0  0  0
  7 12  1  0  0  0  0
M  END
$$$$
