C10H18O
APtclcactv12211717283D 0   0.00000     0.00000
 
 29 30  0  0  1  0  0  0  0  0999 V2000
   -1.2267    0.2948    0.7001 C   0  0  1  0  0  0  0  0  0  0  0  0
    1.4715    0.4390    1.7046 C   0  0  0  0  0  0  0  0  0  0  0  0
    2.3353    0.0322   -0.6419 C   0  0  0  0  0  0  0  0  0  0  0  0
    0.0526    2.2461   -0.4890 C   0  0  0  0  0  0  0  0  0  0  0  0
   -3.2335    0.0317    0.6308 H   0  0  0  0  0  0  0  0  0  0  0  0
   -2.5058    0.3216    0.0636 O   0  0  0  0  0  0  0  0  0  0  0  0
   -0.8505   -1.1521    1.0931 C   0  0  0  0  0  0  0  0  0  0  0  0
   -0.0119   -1.5532   -1.1898 C   0  0  0  0  0  0  0  0  0  0  0  0
   -0.3864   -0.1016   -1.5839 C   0  0  0  0  0  0  0  0  0  0  0  0
    0.4549   -1.4508    0.2944 C   0  0  0  0  0  0  0  0  0  0  0  0
   -0.1135    0.7372   -0.2981 C   0  0  0  0  0  0  0  0  0  0  0  0
    1.1240   -0.0310    0.2906 C   0  0  0  0  0  0  0  0  0  0  0  0
   -1.2269    0.9394    1.5791 H   0  0  0  0  0  0  0  0  0  0  0  0
    1.0671   -2.2707    0.6699 H   0  0  0  0  0  0  0  0  0  0  0  0
   -0.6638   -1.2184    2.1649 H   0  0  0  0  0  0  0  0  0  0  0  0
   -1.6413   -1.8430    0.8008 H   0  0  0  0  0  0  0  0  0  0  0  0
   -0.8804   -2.2070   -1.2707 H   0  0  0  0  0  0  0  0  0  0  0  0
    0.7997   -1.9185   -1.8191 H   0  0  0  0  0  0  0  0  0  0  0  0
    0.2405    0.2464   -2.4048 H   0  0  0  0  0  0  0  0  0  0  0  0
   -1.4397   -0.0446   -1.8584 H   0  0  0  0  0  0  0  0  0  0  0  0
    0.6202    0.2684    2.3636 H   0  0  0  0  0  0  0  0  0  0  0  0
    2.3328   -0.1191    2.0716 H   0  0  0  0  0  0  0  0  0  0  0  0
    1.7089    1.5027    1.6858 H   0  0  0  0  0  0  0  0  0  0  0  0
    2.6221    1.0726   -0.7949 H   0  0  0  0  0  0  0  0  0  0  0  0
    3.1670   -0.5120   -0.1945 H   0  0  0  0  0  0  0  0  0  0  0  0
    2.0796   -0.4190   -1.6007 H   0  0  0  0  0  0  0  0  0  0  0  0
    0.3186    2.7056    0.4629 H   0  0  0  0  0  0  0  0  0  0  0  0
    0.8414    2.4356   -1.2170 H   0  0  0  0  0  0  0  0  0  0  0  0
   -0.8840    2.6720   -0.8489 H   0  0  0  0  0  0  0  0  0  0  0  0
  1  6  1  0  0  0  0
  1 13  1  0  0  0  0
  1 11  1  0  0  0  0
  1  7  1  0  0  0  0
 11 12  1  0  0  0  0
  9 11  1  0  0  0  0
  4 11  1  0  0  0  0
 10 12  1  0  0  0  0
  2 12  1  0  0  0  0
  3 12  1  0  0  0  0
  7 10  1  0  0  0  0
  8 10  1  0  0  0  0
  8  9  1  0  0  0  0
  5  6  1  0  0  0  0
 10 14  1  0  0  0  0
  7 15  1  0  0  0  0
  7 16  1  0  0  0  0
  8 17  1  0  0  0  0
  8 18  1  0  0  0  0
  9 19  1  0  0  0  0
  9 20  1  0  0  0  0
  2 21  1  0  0  0  0
  2 22  1  0  0  0  0
  2 23  1  0  0  0  0
  3 24  1  0  0  0  0
  3 25  1  0  0  0  0
  3 26  1  0  0  0  0
  4 27  1  0  0  0  0
  4 28  1  0  0  0  0
  4 29  1  0  0  0  0
M  END
$$$$
