C10H18O
APtclcactv12211717283D 0   0.00000     0.00000
 
 29 30  0  0  0  0  0  0  0  0999 V2000
   -0.1271   -0.3679    0.7524 C   0  0  0  0  0  0  0  0  0  0  0  0
   -1.2179    0.6994    0.4325 C   0  0  0  0  0  0  0  0  0  0  0  0
   -0.5729    1.6085   -0.6384 C   0  0  0  0  0  0  0  0  0  0  0  0
    0.8469    1.0049   -0.8647 C   0  0  0  0  0  0  0  0  0  0  0  0
    1.6231    1.3302    0.4479 C   0  0  0  0  0  0  0  0  0  0  0  0
    0.9781    0.4210    1.5189 C   0  0  0  0  0  0  0  0  0  0  0  0
    0.5498   -0.5219   -0.6552 C   0  0  0  0  0  0  0  0  0  0  0  0
    1.8331   -1.3522   -0.5871 C   0  0  0  0  0  0  0  0  0  0  0  0
   -0.4230   -1.0662   -1.7032 C   0  0  0  0  0  0  0  0  0  0  0  0
   -2.3914    0.0718   -0.0881 O   0  0  0  0  0  0  0  0  0  0  0  0
   -0.6225   -1.6496    1.4254 C   0  0  0  0  0  0  0  0  0  0  0  0
   -1.4587    1.2761    1.3255 H   0  0  0  0  0  0  0  0  0  0  0  0
   -1.1509    1.5768   -1.5620 H   0  0  0  0  0  0  0  0  0  0  0  0
   -0.4965    2.6322   -0.2719 H   0  0  0  0  0  0  0  0  0  0  0  0
    1.3423    1.2874   -1.7936 H   0  0  0  0  0  0  0  0  0  0  0  0
    2.6804    1.0912    0.3333 H   0  0  0  0  0  0  0  0  0  0  0  0
    1.4966    2.3796    0.7141 H   0  0  0  0  0  0  0  0  0  0  0  0
    0.5344    1.0235    2.3115 H   0  0  0  0  0  0  0  0  0  0  0  0
    1.7182   -0.2650    1.9308 H   0  0  0  0  0  0  0  0  0  0  0  0
    2.4569   -0.9905    0.2303 H   0  0  0  0  0  0  0  0  0  0  0  0
    1.5802   -2.3985   -0.4157 H   0  0  0  0  0  0  0  0  0  0  0  0
    2.3764   -1.2590   -1.5274 H   0  0  0  0  0  0  0  0  0  0  0  0
    0.0150   -0.9597   -2.6956 H   0  0  0  0  0  0  0  0  0  0  0  0
   -0.6197   -2.1196   -1.5040 H   0  0  0  0  0  0  0  0  0  0  0  0
   -1.3575   -0.5070   -1.6567 H   0  0  0  0  0  0  0  0  0  0  0  0
   -3.1039    0.6885   -0.3050 H   0  0  0  0  0  0  0  0  0  0  0  0
   -1.3349   -2.1516    0.7708 H   0  0  0  0  0  0  0  0  0  0  0  0
    0.2234   -2.3100    1.6162 H   0  0  0  0  0  0  0  0  0  0  0  0
   -1.1088   -1.4002    2.3684 H   0  0  0  0  0  0  0  0  0  0  0  0
  1  2  1  0  0  0  0
  2  3  1  0  0  0  0
  3  4  1  0  0  0  0
  4  5  1  0  0  0  0
  5  6  1  0  0  0  0
  1  6  1  0  0  0  0
  4  7  1  0  0  0  0
  1  7  1  0  0  0  0
  7  8  1  0  0  0  0
  7  9  1  0  0  0  0
  2 10  1  0  0  0  0
  1 11  1  0  0  0  0
  2 12  1  0  0  0  0
  3 13  1  0  0  0  0
  3 14  1  0  0  0  0
  4 15  1  0  0  0  0
  5 16  1  0  0  0  0
  5 17  1  0  0  0  0
  6 18  1  0  0  0  0
  6 19  1  0  0  0  0
  8 20  1  0  0  0  0
  8 21  1  0  0  0  0
  8 22  1  0  0  0  0
  9 23  1  0  0  0  0
  9 24  1  0  0  0  0
  9 25  1  0  0  0  0
 10 26  1  0  0  0  0
 11 27  1  0  0  0  0
 11 28  1  0  0  0  0
 11 29  1  0  0  0  0
M  END
$$$$
