C9H13BrN2O2
APtclcactv12151716493D 0   0.00000     0.00000
 
 27 27  0  0  0  0  0  0  0  0999 V2000
   -3.5245    0.7470   -0.7401 C   0  0  0  0  0  0  0  0  0  0  0  0
    2.0133   -2.3917   -0.3670 C   0  0  0  0  0  0  0  0  0  0  0  0
   -3.3284    0.3819    1.7237 C   0  0  0  0  0  0  0  0  0  0  0  0
   -2.8385    1.3460   -1.9695 C   0  0  0  0  0  0  0  0  0  0  0  0
   -0.5580   -3.0124   -0.2653 H   0  0  0  0  0  0  0  0  0  0  0  0
   -0.0706    1.8215    0.4110 O   0  0  0  0  0  0  0  0  0  0  0  0
   -2.6339   -1.7882    0.0809 O   0  0  0  0  0  0  0  0  0  0  0  0
   -0.1843    0.6208    0.2421 C   0  0  0  0  0  0  0  0  0  0  0  0
    0.9631   -0.1840    0.0375 C   0  0  0  0  0  0  0  0  0  0  0  0
   -1.5281   -1.2827    0.0674 C   0  0  0  0  0  0  0  0  0  0  0  0
    0.8090   -1.5130   -0.1468 C   0  0  0  0  0  0  0  0  0  0  0  0
   -2.5965    0.8662    0.4705 C   0  0  0  0  0  0  0  0  0  0  0  0
   -1.4032    0.0445    0.2537 N   0  0  0  0  0  0  0  0  0  0  0  0
    2.6876    0.5919    0.0221 Br  0  0  0  0  0  0  0  0  0  0  0  0
   -0.4470   -2.0579   -0.1330 N   0  0  0  0  0  0  0  0  0  0  0  0
   -2.3019    1.9074    0.6013 H   0  0  0  0  0  0  0  0  0  0  0  0
   -4.4509    1.2862   -0.5422 H   0  0  0  0  0  0  0  0  0  0  0  0
   -3.7480   -0.3037   -0.9246 H   0  0  0  0  0  0  0  0  0  0  0  0
    2.2275   -2.4538   -1.4339 H   0  0  0  0  0  0  0  0  0  0  0  0
    2.8726   -1.9671    0.1520 H   0  0  0  0  0  0  0  0  0  0  0  0
    1.8108   -3.3897    0.0216 H   0  0  0  0  0  0  0  0  0  0  0  0
   -2.6673    0.4668    2.5862 H   0  0  0  0  0  0  0  0  0  0  0  0
   -4.2163    0.9932    1.8850 H   0  0  0  0  0  0  0  0  0  0  0  0
   -3.6231   -0.6593    1.5929 H   0  0  0  0  0  0  0  0  0  0  0  0
   -2.6150    2.3968   -1.7850 H   0  0  0  0  0  0  0  0  0  0  0  0
   -1.9121    0.8069   -2.1674 H   0  0  0  0  0  0  0  0  0  0  0  0
   -3.4996    1.2612   -2.8320 H   0  0  0  0  0  0  0  0  0  0  0  0
  9 14  1  0  0  0  0
  6  8  2  0  0  0  0
  7 10  2  0  0  0  0
  8 13  1  0  0  0  0
 10 13  1  0  0  0  0
 12 13  1  0  0  0  0
 10 15  1  0  0  0  0
 11 15  1  0  0  0  0
  8  9  1  0  0  0  0
  9 11  2  0  0  0  0
  2 11  1  0  0  0  0
  1 12  1  0  0  0  0
  3 12  1  0  0  0  0
  1  4  1  0  0  0  0
  5 15  1  0  0  0  0
 12 16  1  0  0  0  0
  1 17  1  0  0  0  0
  1 18  1  0  0  0  0
  2 19  1  0  0  0  0
  2 20  1  0  0  0  0
  2 21  1  0  0  0  0
  3 22  1  0  0  0  0
  3 23  1  0  0  0  0
  3 24  1  0  0  0  0
  4 25  1  0  0  0  0
  4 26  1  0  0  0  0
  4 27  1  0  0  0  0
M  END
$$$$
