CHBrCl2
APtclcactv12101715303D 0   0.00000     0.00000
 
  5  4  0  0  0  0  0  0  0  0999 V2000
   -1.3196   -0.0000    0.0314 Br  0  0  0  0  0  0  0  0  0  0  0  0
    0.5579   -0.0000   -0.5519 C   0  0  0  0  0  0  0  0  0  0  0  0
    1.3840    1.4721    0.0815 Cl  0  0  0  0  0  0  0  0  0  0  0  0
    1.3840   -1.4721    0.0815 Cl  0  0  0  0  0  0  0  0  0  0  0  0
    0.6000    0.0000   -1.6411 H   0  0  0  0  0  0  0  0  0  0  0  0
  1  2  1  0  0  0  0
  2  3  1  0  0  0  0
  2  4  1  0  0  0  0
  2  5  1  0  0  0  0
M  END
$$$$
