C11H16N2O3
APtclcactv12211717353D 0   0.00000     0.00000
 
 32 32  0  0  0  0  0  0  0  0999 V2000
    1.3035   -1.3885   -0.0090 C   0  0  0  0  0  0  0  0  0  0  0  0
   -1.1190   -1.8464    0.1816 C   0  0  0  0  0  0  0  0  0  0  0  0
    3.7620   -0.9883    0.1857 C   0  0  0  0  0  0  0  0  0  0  0  0
    2.3342    0.6093   -1.0993 C   0  0  0  0  0  0  0  0  0  0  0  0
   -0.4204    1.9260    2.0852 H   0  0  0  0  0  0  0  0  0  0  0  0
   -0.7242    1.8791   -1.8942 H   0  0  0  0  0  0  0  0  0  0  0  0
    0.0538   -0.4560    2.4520 O   0  0  0  0  0  0  0  0  0  0  0  0
   -0.3021   -0.5108   -2.2732 O   0  0  0  0  0  0  0  0  0  0  0  0
   -0.8147    3.1811    0.0989 O   0  0  0  0  0  0  0  0  0  0  0  0
   -0.1255    0.0707    1.3749 C   0  0  0  0  0  0  0  0  0  0  0  0
   -0.3218    0.0404   -1.1936 C   0  0  0  0  0  0  0  0  0  0  0  0
   -0.5889    1.9874    0.0958 C   0  0  0  0  0  0  0  0  0  0  0  0
    2.3887   -0.3173    0.1169 C   0  0  0  0  0  0  0  0  0  0  0  0
   -2.4868   -1.2398    0.3612 C   0  0  0  0  0  0  0  0  0  0  0  0
   -0.0750   -0.7318    0.0886 C   0  0  0  0  0  0  0  0  0  0  0  0
   -0.3831    1.3922    1.2762 N   0  0  0  0  0  0  0  0  0  0  0  0
   -0.5638    1.3643   -1.0879 N   0  0  0  0  0  0  0  0  0  0  0  0
   -3.4531   -1.5457   -0.4686 C   0  0  0  0  0  0  0  0  0  0  0  0
    1.3991   -1.8912   -0.9714 H   0  0  0  0  0  0  0  0  0  0  0  0
    1.4168   -2.1166    0.7942 H   0  0  0  0  0  0  0  0  0  0  0  0
   -0.8912   -2.4876    1.0331 H   0  0  0  0  0  0  0  0  0  0  0  0
   -1.1013   -2.4381   -0.7337 H   0  0  0  0  0  0  0  0  0  0  0  0
    2.2223    0.2636    1.0241 H   0  0  0  0  0  0  0  0  0  0  0  0
   -2.6703   -0.5529    1.1742 H   0  0  0  0  0  0  0  0  0  0  0  0
    4.5272   -0.2325    0.3631 H   0  0  0  0  0  0  0  0  0  0  0  0
    3.7718   -1.7132    0.9996 H   0  0  0  0  0  0  0  0  0  0  0  0
    3.9654   -1.4971   -0.7565 H   0  0  0  0  0  0  0  0  0  0  0  0
    1.4070    1.1820   -1.0785 H   0  0  0  0  0  0  0  0  0  0  0  0
    3.1836    1.2920   -1.0743 H   0  0  0  0  0  0  0  0  0  0  0  0
    2.3732    0.0141   -2.0116 H   0  0  0  0  0  0  0  0  0  0  0  0
   -3.2696   -2.2327   -1.2816 H   0  0  0  0  0  0  0  0  0  0  0  0
   -4.4334   -1.1110   -0.3399 H   0  0  0  0  0  0  0  0  0  0  0  0
 10 15  1  0  0  0  0
 11 15  1  0  0  0  0
  1 15  1  0  0  0  0
  2 15  1  0  0  0  0
 10 16  1  0  0  0  0
  7 10  2  0  0  0  0
 11 17  1  0  0  0  0
  8 11  2  0  0  0  0
  1 13  1  0  0  0  0
  2 14  1  0  0  0  0
 12 16  1  0  0  0  0
  3 13  1  0  0  0  0
  4 13  1  0  0  0  0
 14 18  2  0  0  0  0
  9 12  2  0  0  0  0
 12 17  1  0  0  0  0
  1 19  1  0  0  0  0
  1 20  1  0  0  0  0
  2 21  1  0  0  0  0
  2 22  1  0  0  0  0
  5 16  1  0  0  0  0
  6 17  1  0  0  0  0
 13 23  1  0  0  0  0
 14 24  1  0  0  0  0
  3 25  1  0  0  0  0
  3 26  1  0  0  0  0
  3 27  1  0  0  0  0
  4 28  1  0  0  0  0
  4 29  1  0  0  0  0
  4 30  1  0  0  0  0
 18 31  1  0  0  0  0
 18 32  1  0  0  0  0
M  END
$$$$
