C15H24O
APtclcactv12211717093D 0   0.00000     0.00000
 
 40 40  0  0  0  0  0  0  0  0999 V2000
   -1.1981    1.5481   -0.0029 C   0  0  0  0  0  0  0  0  0  0  0  0
    1.1981    1.5481   -0.0029 C   0  0  0  0  0  0  0  0  0  0  0  0
    0.0000    3.7453   -0.0122 C   0  0  0  0  0  0  0  0  0  0  0  0
    3.6685    0.4110    0.0026 C   0  0  0  0  0  0  0  0  0  0  0  0
    2.5893   -1.4694   -1.2391 C   0  0  0  0  0  0  0  0  0  0  0  0
    2.5893   -1.4594    1.2594 C   0  0  0  0  0  0  0  0  0  0  0  0
   -3.6685    0.4110    0.0019 C   0  0  0  0  0  0  0  0  0  0  0  0
   -2.5893   -1.4585    1.2600 C   0  0  0  0  0  0  0  0  0  0  0  0
   -2.5893   -1.4703   -1.2385 C   0  0  0  0  0  0  0  0  0  0  0  0
    0.0000   -2.2846   -0.8688 H   0  0  0  0  0  0  0  0  0  0  0  0
   -1.2008    0.1667    0.0031 C   0  0  0  0  0  0  0  0  0  0  0  0
    0.0000   -0.5281    0.0064 C   0  0  0  0  0  0  0  0  0  0  0  0
    0.0000    2.2383   -0.0057 C   0  0  0  0  0  0  0  0  0  0  0  0
    1.2008    0.1667    0.0035 C   0  0  0  0  0  0  0  0  0  0  0  0
    0.0000   -1.8871    0.0127 O   0  0  0  0  0  0  0  0  0  0  0  0
   -2.5070   -0.5849    0.0066 C   0  0  0  0  0  0  0  0  0  0  0  0
    2.5070   -0.5849    0.0066 C   0  0  0  0  0  0  0  0  0  0  0  0
   -2.1326    2.0895   -0.0100 H   0  0  0  0  0  0  0  0  0  0  0  0
    2.1326    2.0895   -0.0058 H   0  0  0  0  0  0  0  0  0  0  0  0
   -0.0002    4.1130    1.0139 H   0  0  0  0  0  0  0  0  0  0  0  0
    0.8901    4.1064   -0.5274 H   0  0  0  0  0  0  0  0  0  0  0  0
   -0.8899    4.1064   -0.5278 H   0  0  0  0  0  0  0  0  0  0  0  0
    3.6098    1.0412    0.8900 H   0  0  0  0  0  0  0  0  0  0  0  0
    4.6132   -0.1326    0.0048 H   0  0  0  0  0  0  0  0  0  0  0  0
    3.6098    1.0340   -0.8899 H   0  0  0  0  0  0  0  0  0  0  0  0
    2.5307   -0.8465   -2.1316 H   0  0  0  0  0  0  0  0  0  0  0  0
    3.5341   -2.0131   -1.2369 H   0  0  0  0  0  0  0  0  0  0  0  0
    1.7619   -2.1790   -1.2362 H   0  0  0  0  0  0  0  0  0  0  0  0
    1.7619   -2.1689    1.2622 H   0  0  0  0  0  0  0  0  0  0  0  0
    3.5341   -2.0030    1.2616 H   0  0  0  0  0  0  0  0  0  0  0  0
    2.5307   -0.8292    2.1468 H   0  0  0  0  0  0  0  0  0  0  0  0
   -3.6098    1.0334   -0.8910 H   0  0  0  0  0  0  0  0  0  0  0  0
   -4.6132   -0.1326    0.0045 H   0  0  0  0  0  0  0  0  0  0  0  0
   -3.6098    1.0418    0.8890 H   0  0  0  0  0  0  0  0  0  0  0  0
   -2.5307   -0.8278    2.1470 H   0  0  0  0  0  0  0  0  0  0  0  0
   -3.5341   -2.0021    1.2625 H   0  0  0  0  0  0  0  0  0  0  0  0
   -1.7619   -2.1680    1.2633 H   0  0  0  0  0  0  0  0  0  0  0  0
   -1.7619   -2.1798   -1.2351 H   0  0  0  0  0  0  0  0  0  0  0  0
   -3.5341   -2.0139   -1.2359 H   0  0  0  0  0  0  0  0  0  0  0  0
   -2.5307   -0.8479   -2.1314 H   0  0  0  0  0  0  0  0  0  0  0  0
 11 16  1  0  0  0  0
 11 12  2  0  0  0  0
  1 11  1  0  0  0  0
  7 16  1  0  0  0  0
  8 16  1  0  0  0  0
  9 16  1  0  0  0  0
 12 14  1  0  0  0  0
 12 15  1  0  0  0  0
  1 13  2  0  0  0  0
  2 13  1  0  0  0  0
  3 13  1  0  0  0  0
  2 14  2  0  0  0  0
 14 17  1  0  0  0  0
  4 17  1  0  0  0  0
  5 17  1  0  0  0  0
  6 17  1  0  0  0  0
  1 18  1  0  0  0  0
  2 19  1  0  0  0  0
  3 20  1  0  0  0  0
  3 21  1  0  0  0  0
  3 22  1  0  0  0  0
 10 15  1  0  0  0  0
  4 23  1  0  0  0  0
  4 24  1  0  0  0  0
  4 25  1  0  0  0  0
  5 26  1  0  0  0  0
  5 27  1  0  0  0  0
  5 28  1  0  0  0  0
  6 29  1  0  0  0  0
  6 30  1  0  0  0  0
  6 31  1  0  0  0  0
  7 32  1  0  0  0  0
  7 33  1  0  0  0  0
  7 34  1  0  0  0  0
  8 35  1  0  0  0  0
  8 36  1  0  0  0  0
  8 37  1  0  0  0  0
  9 38  1  0  0  0  0
  9 39  1  0  0  0  0
  9 40  1  0  0  0  0
M  END
$$$$
