C4H9NO3
APtclcactv12211716403D 0   0.00000     0.00000
 
 17 16  0  0  0  0  0  0  0  0999 V2000
   -2.0948    0.0225    0.0015 N   0  3  0  0  0  0  0  0  0  0  0  0
   -2.1941   -1.1915    0.0000 O   0  0  0  0  0  0  0  0  0  0  0  0
   -0.8149    0.6282    0.0017 O   0  0  0  0  0  0  0  0  0  0  0  0
    0.2689   -0.3032    0.0002 C   0  0  0  0  0  0  0  0  0  0  0  0
    1.5959    0.4584    0.0007 C   0  0  0  0  0  0  0  0  0  0  0  0
    2.7562   -0.5388   -0.0010 C   0  0  0  0  0  0  0  0  0  0  0  0
    4.0832    0.2228   -0.0005 C   0  0  0  0  0  0  0  0  0  0  0  0
   -3.0965    0.7154   -0.0024 O   0  5  0  0  0  0  0  0  0  0  0  0
    0.2099   -0.9308    0.8894 H   0  0  0  0  0  0  0  0  0  0  0  0
    0.2092   -0.9286   -0.8905 H   0  0  0  0  0  0  0  0  0  0  0  0
    1.6549    1.0860   -0.8886 H   0  0  0  0  0  0  0  0  0  0  0  0
    1.6555    1.0838    0.8914 H   0  0  0  0  0  0  0  0  0  0  0  0
    2.6972   -1.1664    0.8883 H   0  0  0  0  0  0  0  0  0  0  0  0
    2.6966   -1.1642   -0.8917 H   0  0  0  0  0  0  0  0  0  0  0  0
    4.1422    0.8504   -0.8897 H   0  0  0  0  0  0  0  0  0  0  0  0
    4.1429    0.8482    0.8902 H   0  0  0  0  0  0  0  0  0  0  0  0
    4.9099   -0.4876   -0.0017 H   0  0  0  0  0  0  0  0  0  0  0  0
  1  2  2  0  0  0  0
  1  3  1  0  0  0  0
  3  4  1  0  0  0  0
  4  5  1  0  0  0  0
  5  6  1  0  0  0  0
  6  7  1  0  0  0  0
  1  8  1  0  0  0  0
  4  9  1  0  0  0  0
  4 10  1  0  0  0  0
  5 11  1  0  0  0  0
  5 12  1  0  0  0  0
  6 13  1  0  0  0  0
  6 14  1  0  0  0  0
  7 15  1  0  0  0  0
  7 16  1  0  0  0  0
  7 17  1  0  0  0  0
M  CHG  2   1   1   8  -1
M  END
$$$$
