C11H14O3
APtclcactv12211717343D 0   0.00000     0.00000
 
 28 28  0  0  0  0  0  0  0  0999 V2000
   -2.5673    0.5337    0.0036 C   0  0  0  0  0  0  0  0  0  0  0  0
   -3.5887   -0.6054   -0.0000 C   0  0  0  0  0  0  0  0  0  0  0  0
   -5.0032   -0.0220    0.0062 C   0  0  0  0  0  0  0  0  0  0  0  0
   -6.0246   -1.1611    0.0026 C   0  0  0  0  0  0  0  0  0  0  0  0
   -1.2250   -0.0199   -0.0023 O   0  0  0  0  0  0  0  0  0  0  0  0
   -0.2017    0.8568   -0.0001 C   0  0  0  0  0  0  0  0  0  0  0  0
   -0.4249    2.0511    0.0066 O   0  0  0  0  0  0  0  0  0  0  0  0
    1.1892    0.3667   -0.0058 C   0  0  0  0  0  0  0  0  0  0  0  0
    2.2523    1.2745   -0.0034 C   0  0  0  0  0  0  0  0  0  0  0  0
    3.5493    0.8126   -0.0088 C   0  0  0  0  0  0  0  0  0  0  0  0
    3.8025   -0.5542   -0.0165 C   0  0  0  0  0  0  0  0  0  0  0  0
    5.0823   -1.0052   -0.0218 O   0  0  0  0  0  0  0  0  0  0  0  0
    2.7482   -1.4604   -0.0184 C   0  0  0  0  0  0  0  0  0  0  0  0
    1.4482   -1.0070   -0.0077 C   0  0  0  0  0  0  0  0  0  0  0  0
   -2.7093    1.1519   -0.8829 H   0  0  0  0  0  0  0  0  0  0  0  0
   -2.7052    1.1426    0.8971 H   0  0  0  0  0  0  0  0  0  0  0  0
   -3.4508   -1.2143   -0.8935 H   0  0  0  0  0  0  0  0  0  0  0  0
   -3.4468   -1.2235    0.8864 H   0  0  0  0  0  0  0  0  0  0  0  0
   -5.1411    0.5869    0.8997 H   0  0  0  0  0  0  0  0  0  0  0  0
   -5.1451    0.5961   -0.8803 H   0  0  0  0  0  0  0  0  0  0  0  0
   -7.0323   -0.7455    0.0070 H   0  0  0  0  0  0  0  0  0  0  0  0
   -5.8866   -1.7700   -0.8909 H   0  0  0  0  0  0  0  0  0  0  0  0
   -5.8826   -1.7793    0.8890 H   0  0  0  0  0  0  0  0  0  0  0  0
    2.0564    2.3365    0.0022 H   0  0  0  0  0  0  0  0  0  0  0  0
    4.3711    1.5133   -0.0074 H   0  0  0  0  0  0  0  0  0  0  0  0
    5.4553   -1.1406    0.8601 H   0  0  0  0  0  0  0  0  0  0  0  0
    2.9493   -2.5215   -0.0241 H   0  0  0  0  0  0  0  0  0  0  0  0
    0.6298   -1.7117   -0.0088 H   0  0  0  0  0  0  0  0  0  0  0  0
  1  2  1  0  0  0  0
  2  3  1  0  0  0  0
  3  4  1  0  0  0  0
  1  5  1  0  0  0  0
  5  6  1  0  0  0  0
  6  7  2  0  0  0  0
  6  8  1  0  0  0  0
  8  9  2  0  0  0  0
  9 10  1  0  0  0  0
 10 11  2  0  0  0  0
 11 12  1  0  0  0  0
 11 13  1  0  0  0  0
 13 14  2  0  0  0  0
  8 14  1  0  0  0  0
  1 15  1  0  0  0  0
  1 16  1  0  0  0  0
  2 17  1  0  0  0  0
  2 18  1  0  0  0  0
  3 19  1  0  0  0  0
  3 20  1  0  0  0  0
  4 21  1  0  0  0  0
  4 22  1  0  0  0  0
  4 23  1  0  0  0  0
  9 24  1  0  0  0  0
 10 25  1  0  0  0  0
 12 26  1  0  0  0  0
 13 27  1  0  0  0  0
 14 28  1  0  0  0  0
M  END
$$$$
