C8H16O3
APtclcactv12151716373D 0   0.00000     0.00000
 
 27 26  0  0  0  0  0  0  0  0999 V2000
   -4.3645   -0.1210   -0.2332 C   0  0  0  0  0  0  0  0  0  0  0  0
   -2.9308   -0.3399    0.2541 C   0  0  0  0  0  0  0  0  0  0  0  0
   -2.0216    0.7409   -0.3341 C   0  0  0  0  0  0  0  0  0  0  0  0
    0.2525    1.4975   -0.3731 C   0  0  0  0  0  0  0  0  0  0  0  0
    1.6456    1.1826    0.1755 C   0  0  0  0  0  0  0  0  0  0  0  0
   -5.2737   -1.2018    0.3550 C   0  0  0  0  0  0  0  0  0  0  0  0
    3.8405   -1.8370   -0.4637 C   0  0  0  0  0  0  0  0  0  0  0  0
    3.9717    0.1529    0.7914 O   0  0  0  0  0  0  0  0  0  0  0  0
    3.3074   -0.5202    0.0392 C   0  0  0  0  0  0  0  0  0  0  0  0
   -0.6825    0.5365    0.1211 O   0  0  0  0  0  0  0  0  0  0  0  0
    2.0947   -0.0950   -0.3484 O   0  0  0  0  0  0  0  0  0  0  0  0
   -6.2951   -1.0458    0.0079 H   0  0  0  0  0  0  0  0  0  0  0  0
   -4.9265   -2.1835    0.0330 H   0  0  0  0  0  0  0  0  0  0  0  0
   -5.2474   -1.1460    1.4433 H   0  0  0  0  0  0  0  0  0  0  0  0
   -4.7118    0.8608    0.0889 H   0  0  0  0  0  0  0  0  0  0  0  0
   -4.3909   -0.1767   -1.3214 H   0  0  0  0  0  0  0  0  0  0  0  0
   -2.9044   -0.2841    1.3424 H   0  0  0  0  0  0  0  0  0  0  0  0
   -2.5835   -1.3216   -0.0679 H   0  0  0  0  0  0  0  0  0  0  0  0
   -2.0479    0.6852   -1.4223 H   0  0  0  0  0  0  0  0  0  0  0  0
   -2.3688    1.7227   -0.0120 H   0  0  0  0  0  0  0  0  0  0  0  0
   -0.0476    2.4949   -0.0519 H   0  0  0  0  0  0  0  0  0  0  0  0
    0.2733    1.4574   -1.4622 H   0  0  0  0  0  0  0  0  0  0  0  0
    3.9058   -1.8109   -1.5514 H   0  0  0  0  0  0  0  0  0  0  0  0
    4.8312   -2.0119   -0.0443 H   0  0  0  0  0  0  0  0  0  0  0  0
    3.1699   -2.6405   -0.1591 H   0  0  0  0  0  0  0  0  0  0  0  0
    2.3412    1.9648   -0.1285 H   0  0  0  0  0  0  0  0  0  0  0  0
    1.6053    1.1351    1.2637 H   0  0  0  0  0  0  0  0  0  0  0  0
  1  6  1  0  0  0  0
  1  2  1  0  0  0  0
  2  3  1  0  0  0  0
  3 10  1  0  0  0  0
  4 10  1  0  0  0  0
  4  5  1  0  0  0  0
  7  9  1  0  0  0  0
  9 11  1  0  0  0  0
  8  9  2  0  0  0  0
  5 11  1  0  0  0  0
  6 12  1  0  0  0  0
  6 13  1  0  0  0  0
  6 14  1  0  0  0  0
  1 15  1  0  0  0  0
  1 16  1  0  0  0  0
  2 17  1  0  0  0  0
  2 18  1  0  0  0  0
  3 19  1  0  0  0  0
  3 20  1  0  0  0  0
  4 21  1  0  0  0  0
  4 22  1  0  0  0  0
  7 23  1  0  0  0  0
  7 24  1  0  0  0  0
  7 25  1  0  0  0  0
  5 26  1  0  0  0  0
  5 27  1  0  0  0  0
M  END
$$$$
