C11H11NO2S
APtclcactv12211717323D 0   0.00000     0.00000
 
 26 26  0  0  0  0  0  0  0  0999 V2000
   -2.7091    0.0222   -0.1341 C   0  0  0  0  0  0  0  0  0  0  0  0
   -4.1475    0.2919   -0.4938 C   0  0  0  0  0  0  0  0  0  0  0  0
   -4.9640    0.4918    0.7845 C   0  0  0  0  0  0  0  0  0  0  0  0
   -6.4243    0.7656    0.4193 C   0  0  0  0  0  0  0  0  0  0  0  0
   -2.3717   -0.0072    1.0257 O   0  0  0  0  0  0  0  0  0  0  0  0
   -1.8033   -0.1910   -1.1026 O   0  0  0  0  0  0  0  0  0  0  0  0
   -0.5180   -0.3772   -0.7131 C   0  0  0  0  0  0  0  0  0  0  0  0
   -0.1268   -1.6077   -0.1805 C   0  0  0  0  0  0  0  0  0  0  0  0
    1.1606   -1.8064    0.2138 C   0  0  0  0  0  0  0  0  0  0  0  0
    2.1066   -0.7573    0.0821 C   0  0  0  0  0  0  0  0  0  0  0  0
    1.6971    0.4882   -0.4603 C   0  0  0  0  0  0  0  0  0  0  0  0
    0.4056    0.6613   -0.8530 C   0  0  0  0  0  0  0  0  0  0  0  0
    3.3622   -0.9390    0.4630 N   0  0  0  0  0  0  0  0  0  0  0  0
    4.1916   -0.0113    0.3448 C   0  0  0  0  0  0  0  0  0  0  0  0
    5.2225    1.1416    0.1978 S   0  0  0  0  0  0  0  0  0  0  0  0
   -4.2062    1.1913   -1.1068 H   0  0  0  0  0  0  0  0  0  0  0  0
   -4.5474   -0.5548   -1.0518 H   0  0  0  0  0  0  0  0  0  0  0  0
   -4.9053   -0.4076    1.3975 H   0  0  0  0  0  0  0  0  0  0  0  0
   -4.5641    1.3385    1.3425 H   0  0  0  0  0  0  0  0  0  0  0  0
   -6.4830    1.6650   -0.1936 H   0  0  0  0  0  0  0  0  0  0  0  0
   -6.8242   -0.0811   -0.1386 H   0  0  0  0  0  0  0  0  0  0  0  0
   -7.0061    0.9080    1.3301 H   0  0  0  0  0  0  0  0  0  0  0  0
   -0.8488   -2.4047   -0.0810 H   0  0  0  0  0  0  0  0  0  0  0  0
    1.4607   -2.7586    0.6257 H   0  0  0  0  0  0  0  0  0  0  0  0
    2.4084    1.2942   -0.5650 H   0  0  0  0  0  0  0  0  0  0  0  0
    0.0915    1.6083   -1.2666 H   0  0  0  0  0  0  0  0  0  0  0  0
  1  2  1  0  0  0  0
  2  3  1  0  0  0  0
  3  4  1  0  0  0  0
  1  5  2  0  0  0  0
  1  6  1  0  0  0  0
  6  7  1  0  0  0  0
  7  8  2  0  0  0  0
  8  9  1  0  0  0  0
  9 10  2  0  0  0  0
 10 11  1  0  0  0  0
 11 12  2  0  0  0  0
  7 12  1  0  0  0  0
 10 13  1  0  0  0  0
 13 14  2  0  0  0  0
 14 15  2  0  0  0  0
  2 16  1  0  0  0  0
  2 17  1  0  0  0  0
  3 18  1  0  0  0  0
  3 19  1  0  0  0  0
  4 20  1  0  0  0  0
  4 21  1  0  0  0  0
  4 22  1  0  0  0  0
  8 23  1  0  0  0  0
  9 24  1  0  0  0  0
 11 25  1  0  0  0  0
 12 26  1  0  0  0  0
M  END
$$$$
