C16H19O4P
APtclcactv12211717123D 0   0.00000     0.00000
 
 40 41  0  0  0  0  0  0  0  0999 V2000
   -0.0794   -0.2979   -0.0733 P   0  0  0  0  0  0  0  0  0  0  0  0
   -0.2855   -0.1171    1.3811 O   0  0  0  0  0  0  0  0  0  0  0  0
    1.4728   -0.6147   -0.3602 O   0  0  0  0  0  0  0  0  0  0  0  0
    2.1774   -1.6873    0.2685 C   0  0  0  0  0  0  0  0  0  0  0  0
    3.6252   -1.7053   -0.2257 C   0  0  0  0  0  0  0  0  0  0  0  0
    4.3796   -2.8537    0.4474 C   0  0  0  0  0  0  0  0  0  0  0  0
    5.8275   -2.8718   -0.0468 C   0  0  0  0  0  0  0  0  0  0  0  0
   -0.9827   -1.5244   -0.5949 O   0  0  0  0  0  0  0  0  0  0  0  0
   -2.3070   -1.3914   -0.3203 C   0  0  0  0  0  0  0  0  0  0  0  0
   -3.1406   -0.7391   -1.2171 C   0  0  0  0  0  0  0  0  0  0  0  0
   -4.4864   -0.6052   -0.9356 C   0  0  0  0  0  0  0  0  0  0  0  0
   -5.0028   -1.1207    0.2388 C   0  0  0  0  0  0  0  0  0  0  0  0
   -4.1741   -1.7709    1.1345 C   0  0  0  0  0  0  0  0  0  0  0  0
   -2.8287   -1.9128    0.8547 C   0  0  0  0  0  0  0  0  0  0  0  0
   -0.5043    1.0485   -0.8470 O   0  0  0  0  0  0  0  0  0  0  0  0
    0.1278    2.1656   -0.4004 C   0  0  0  0  0  0  0  0  0  0  0  0
    1.3446    2.5422   -0.9502 C   0  0  0  0  0  0  0  0  0  0  0  0
    1.9851    3.6781   -0.4944 C   0  0  0  0  0  0  0  0  0  0  0  0
    1.4146    4.4395    0.5089 C   0  0  0  0  0  0  0  0  0  0  0  0
    0.2022    4.0660    1.0588 C   0  0  0  0  0  0  0  0  0  0  0  0
   -0.4454    2.9343    0.6022 C   0  0  0  0  0  0  0  0  0  0  0  0
    2.1641   -1.5466    1.3493 H   0  0  0  0  0  0  0  0  0  0  0  0
    1.6966   -2.6332    0.0193 H   0  0  0  0  0  0  0  0  0  0  0  0
    3.6385   -1.8460   -1.3065 H   0  0  0  0  0  0  0  0  0  0  0  0
    4.1060   -0.7594    0.0235 H   0  0  0  0  0  0  0  0  0  0  0  0
    4.3663   -2.7130    1.5282 H   0  0  0  0  0  0  0  0  0  0  0  0
    3.8988   -3.7997    0.1982 H   0  0  0  0  0  0  0  0  0  0  0  0
    5.8407   -3.0125   -1.1276 H   0  0  0  0  0  0  0  0  0  0  0  0
    6.3083   -1.9258    0.2024 H   0  0  0  0  0  0  0  0  0  0  0  0
    6.3649   -3.6899    0.4327 H   0  0  0  0  0  0  0  0  0  0  0  0
   -2.7376   -0.3359   -2.1344 H   0  0  0  0  0  0  0  0  0  0  0  0
   -5.1356   -0.0971   -1.6333 H   0  0  0  0  0  0  0  0  0  0  0  0
   -6.0553   -1.0150    0.4571 H   0  0  0  0  0  0  0  0  0  0  0  0
   -4.5798   -2.1721    2.0515 H   0  0  0  0  0  0  0  0  0  0  0  0
   -2.1818   -2.4208    1.5547 H   0  0  0  0  0  0  0  0  0  0  0  0
    1.7908    1.9477   -1.7336 H   0  0  0  0  0  0  0  0  0  0  0  0
    2.9325    3.9715   -0.9218 H   0  0  0  0  0  0  0  0  0  0  0  0
    1.9169    5.3272    0.8639 H   0  0  0  0  0  0  0  0  0  0  0  0
   -0.2411    4.6619    1.8429 H   0  0  0  0  0  0  0  0  0  0  0  0
   -1.3924    2.6430    1.0320 H   0  0  0  0  0  0  0  0  0  0  0  0
  1  2  2  0  0  0  0
  1  3  1  0  0  0  0
  3  4  1  0  0  0  0
  4  5  1  0  0  0  0
  5  6  1  0  0  0  0
  6  7  1  0  0  0  0
  1  8  1  0  0  0  0
  8  9  1  0  0  0  0
  9 10  2  0  0  0  0
 10 11  1  0  0  0  0
 11 12  2  0  0  0  0
 12 13  1  0  0  0  0
 13 14  2  0  0  0  0
  9 14  1  0  0  0  0
  1 15  1  0  0  0  0
 15 16  1  0  0  0  0
 16 17  2  0  0  0  0
 17 18  1  0  0  0  0
 18 19  2  0  0  0  0
 19 20  1  0  0  0  0
 20 21  2  0  0  0  0
 16 21  1  0  0  0  0
  4 22  1  0  0  0  0
  4 23  1  0  0  0  0
  5 24  1  0  0  0  0
  5 25  1  0  0  0  0
  6 26  1  0  0  0  0
  6 27  1  0  0  0  0
  7 28  1  0  0  0  0
  7 29  1  0  0  0  0
  7 30  1  0  0  0  0
 10 31  1  0  0  0  0
 11 32  1  0  0  0  0
 12 33  1  0  0  0  0
 13 34  1  0  0  0  0
 14 35  1  0  0  0  0
 17 36  1  0  0  0  0
 18 37  1  0  0  0  0
 19 38  1  0  0  0  0
 20 39  1  0  0  0  0
 21 40  1  0  0  0  0
M  END
$$$$
