C4H9NO
APtclcactv12211716403D 0   0.00000     0.00000
 
 15 14  0  0  0  0  0  0  0  0999 V2000
    1.0519    0.0120   -0.0019 C   0  0  0  0  0  0  0  0  0  0  0  0
   -0.3031   -0.6476   -0.0019 C   0  0  0  0  0  0  0  0  0  0  0  0
   -1.3929    0.4262    0.0008 C   0  0  0  0  0  0  0  0  0  0  0  0
   -2.7686   -0.2434    0.0007 C   0  0  0  0  0  0  0  0  0  0  0  0
    1.1375    1.2218    0.0001 O   0  0  0  0  0  0  0  0  0  0  0  0
    2.1687   -0.7425    0.0015 N   0  0  0  0  0  0  0  0  0  0  0  0
   -0.4056   -1.2671   -0.8929 H   0  0  0  0  0  0  0  0  0  0  0  0
   -0.4041   -1.2701    0.8871 H   0  0  0  0  0  0  0  0  0  0  0  0
   -1.2904    1.0457    0.8917 H   0  0  0  0  0  0  0  0  0  0  0  0
   -1.2919    1.0488   -0.8882 H   0  0  0  0  0  0  0  0  0  0  0  0
   -2.8711   -0.8629   -0.8902 H   0  0  0  0  0  0  0  0  0  0  0  0
   -2.8697   -0.8660    0.8897 H   0  0  0  0  0  0  0  0  0  0  0  0
   -3.5451    0.5216    0.0027 H   0  0  0  0  0  0  0  0  0  0  0  0
    2.1003   -1.7101    0.0040 H   0  0  0  0  0  0  0  0  0  0  0  0
    3.0409   -0.3180    0.0015 H   0  0  0  0  0  0  0  0  0  0  0  0
  1  2  1  0  0  0  0
  2  3  1  0  0  0  0
  3  4  1  0  0  0  0
  1  5  2  0  0  0  0
  1  6  1  0  0  0  0
  2  7  1  0  0  0  0
  2  8  1  0  0  0  0
  3  9  1  0  0  0  0
  3 10  1  0  0  0  0
  4 11  1  0  0  0  0
  4 12  1  0  0  0  0
  4 13  1  0  0  0  0
  6 14  1  0  0  0  0
  6 15  1  0  0  0  0
M  END
$$$$
