C5H10O2
APtclcactv12211716453D 0   0.00000     0.00000
 
 17 16  0  0  0  0  0  0  0  0999 V2000
   -2.4264   -0.3273   -0.0002 C   0  0  0  0  0  0  0  0  0  0  0  0
   -3.4516    0.3121   -0.0000 O   0  0  0  0  0  0  0  0  0  0  0  0
   -1.2418    0.3039    0.0000 O   0  0  0  0  0  0  0  0  0  0  0  0
   -0.0516   -0.5279   -0.0002 C   0  0  0  0  0  0  0  0  0  0  0  0
    1.1927    0.3623    0.0001 C   0  0  0  0  0  0  0  0  0  0  0  0
    2.4468   -0.5141   -0.0002 C   0  0  0  0  0  0  0  0  0  0  0  0
    3.6912    0.3760    0.0001 C   0  0  0  0  0  0  0  0  0  0  0  0
   -2.4631   -1.4066    0.0039 H   0  0  0  0  0  0  0  0  0  0  0  0
   -0.0482   -1.1575    0.8896 H   0  0  0  0  0  0  0  0  0  0  0  0
   -0.0482   -1.1569   -0.8904 H   0  0  0  0  0  0  0  0  0  0  0  0
    1.1893    0.9919   -0.8897 H   0  0  0  0  0  0  0  0  0  0  0  0
    1.1893    0.9913    0.8903 H   0  0  0  0  0  0  0  0  0  0  0  0
    2.4502   -1.1437    0.8896 H   0  0  0  0  0  0  0  0  0  0  0  0
    2.4503   -1.1431   -0.8904 H   0  0  0  0  0  0  0  0  0  0  0  0
    3.6877    1.0056   -0.8896 H   0  0  0  0  0  0  0  0  0  0  0  0
    3.6877    1.0050    0.8903 H   0  0  0  0  0  0  0  0  0  0  0  0
    4.5846   -0.2484   -0.0000 H   0  0  0  0  0  0  0  0  0  0  0  0
  1  2  2  0  0  0  0
  1  3  1  0  0  0  0
  3  4  1  0  0  0  0
  4  5  1  0  0  0  0
  5  6  1  0  0  0  0
  6  7  1  0  0  0  0
  1  8  1  0  0  0  0
  4  9  1  0  0  0  0
  4 10  1  0  0  0  0
  5 11  1  0  0  0  0
  5 12  1  0  0  0  0
  6 13  1  0  0  0  0
  6 14  1  0  0  0  0
  7 15  1  0  0  0  0
  7 16  1  0  0  0  0
  7 17  1  0  0  0  0
M  END
$$$$
