C7H14O3
APtclcactv12151716223D 0   0.00000     0.00000
 
 24 23  0  0  0  0  0  0  0  0999 V2000
   -1.2599    0.3083    0.0779 C   0  0  0  0  0  0  0  0  0  0  0  0
   -2.5374   -0.4184    0.4110 C   0  0  0  0  0  0  0  0  0  0  0  0
   -3.6449    0.4722    0.2616 O   0  0  0  0  0  0  0  0  0  0  0  0
   -2.7088   -1.6085   -0.5352 C   0  0  0  0  0  0  0  0  0  0  0  0
   -1.3007    1.4413   -0.3399 O   0  0  0  0  0  0  0  0  0  0  0  0
   -0.0765   -0.3011    0.2506 O   0  0  0  0  0  0  0  0  0  0  0  0
    1.1125    0.4591   -0.0908 C   0  0  0  0  0  0  0  0  0  0  0  0
    2.3556   -0.3938    0.1704 C   0  0  0  0  0  0  0  0  0  0  0  0
    3.6085    0.4073   -0.1894 C   0  0  0  0  0  0  0  0  0  0  0  0
    4.8516   -0.4455    0.0719 C   0  0  0  0  0  0  0  0  0  0  0  0
   -2.4946   -0.7755    1.4399 H   0  0  0  0  0  0  0  0  0  0  0  0
   -3.7445    0.8297   -0.6314 H   0  0  0  0  0  0  0  0  0  0  0  0
   -1.8640   -2.2878   -0.4212 H   0  0  0  0  0  0  0  0  0  0  0  0
   -3.6328   -2.1341   -0.2943 H   0  0  0  0  0  0  0  0  0  0  0  0
   -2.7516   -1.2514   -1.5641 H   0  0  0  0  0  0  0  0  0  0  0  0
    1.0766    0.7359   -1.1445 H   0  0  0  0  0  0  0  0  0  0  0  0
    1.1554    1.3606    0.5204 H   0  0  0  0  0  0  0  0  0  0  0  0
    2.3915   -0.6705    1.2241 H   0  0  0  0  0  0  0  0  0  0  0  0
    2.3128   -1.2952   -0.4408 H   0  0  0  0  0  0  0  0  0  0  0  0
    3.5726    0.6841   -1.2431 H   0  0  0  0  0  0  0  0  0  0  0  0
    3.6514    1.3088    0.4218 H   0  0  0  0  0  0  0  0  0  0  0  0
    4.8875   -0.7223    1.1255 H   0  0  0  0  0  0  0  0  0  0  0  0
    4.8088   -1.3470   -0.5394 H   0  0  0  0  0  0  0  0  0  0  0  0
    5.7442    0.1251   -0.1845 H   0  0  0  0  0  0  0  0  0  0  0  0
  1  2  1  0  0  0  0
  2  3  1  0  0  0  0
  2  4  1  0  0  0  0
  1  5  2  0  0  0  0
  1  6  1  0  0  0  0
  6  7  1  0  0  0  0
  7  8  1  0  0  0  0
  8  9  1  0  0  0  0
  9 10  1  0  0  0  0
  2 11  1  0  0  0  0
  3 12  1  0  0  0  0
  4 13  1  0  0  0  0
  4 14  1  0  0  0  0
  4 15  1  0  0  0  0
  7 16  1  0  0  0  0
  7 17  1  0  0  0  0
  8 18  1  0  0  0  0
  8 19  1  0  0  0  0
  9 20  1  0  0  0  0
  9 21  1  0  0  0  0
 10 22  1  0  0  0  0
 10 23  1  0  0  0  0
 10 24  1  0  0  0  0
M  END
$$$$
