C18H31O4P
APtclcactv12211717183D 0   0.00000     0.00000
 
 54 54  0  0  0  0  0  0  0  0999 V2000
    1.5555   -0.8274    0.8176 P   0  0  0  0  0  0  0  0  0  0  0  0
    1.5516   -1.9602    1.7700 O   0  0  0  0  0  0  0  0  0  0  0  0
    2.7335   -1.0362   -0.2599 O   0  0  0  0  0  0  0  0  0  0  0  0
    4.0991   -1.2383    0.1093 C   0  0  0  0  0  0  0  0  0  0  0  0
    4.9497   -1.4010   -1.1520 C   0  0  0  0  0  0  0  0  0  0  0  0
    6.4118   -1.6173   -0.7567 C   0  0  0  0  0  0  0  0  0  0  0  0
    7.2624   -1.7800   -2.0180 C   0  0  0  0  0  0  0  0  0  0  0  0
    0.1381   -0.7610    0.0569 O   0  0  0  0  0  0  0  0  0  0  0  0
   -1.1119   -0.6856    0.7454 C   0  0  0  0  0  0  0  0  0  0  0  0
   -2.2529   -0.6371   -0.2728 C   0  0  0  0  0  0  0  0  0  0  0  0
   -3.5911   -0.5564    0.4644 C   0  0  0  0  0  0  0  0  0  0  0  0
   -4.7321   -0.5079   -0.5538 C   0  0  0  0  0  0  0  0  0  0  0  0
   -6.0704   -0.4272    0.1833 C   0  0  0  0  0  0  0  0  0  0  0  0
   -7.2114   -0.3788   -0.8349 C   0  0  0  0  0  0  0  0  0  0  0  0
   -8.5497   -0.2981   -0.0977 C   0  0  0  0  0  0  0  0  0  0  0  0
   -9.6906   -0.2496   -1.1159 C   0  0  0  0  0  0  0  0  0  0  0  0
    1.7992    0.5472    1.6195 O   0  0  0  0  0  0  0  0  0  0  0  0
    1.8198    1.6523    0.8287 C   0  0  0  0  0  0  0  0  0  0  0  0
    0.6450    2.3430    0.5691 C   0  0  0  0  0  0  0  0  0  0  0  0
    0.6687    3.4660   -0.2351 C   0  0  0  0  0  0  0  0  0  0  0  0
    1.8619    3.9017   -0.7811 C   0  0  0  0  0  0  0  0  0  0  0  0
    3.0341    3.2148   -0.5242 C   0  0  0  0  0  0  0  0  0  0  0  0
    3.0167    2.0948    0.2843 C   0  0  0  0  0  0  0  0  0  0  0  0
    4.4529   -0.3781    0.6776 H   0  0  0  0  0  0  0  0  0  0  0  0
    4.1810   -2.1366    0.7212 H   0  0  0  0  0  0  0  0  0  0  0  0
    4.5959   -2.2612   -1.7203 H   0  0  0  0  0  0  0  0  0  0  0  0
    4.8678   -0.5026   -1.7639 H   0  0  0  0  0  0  0  0  0  0  0  0
    6.7656   -0.7571   -0.1884 H   0  0  0  0  0  0  0  0  0  0  0  0
    6.4937   -2.5156   -0.1449 H   0  0  0  0  0  0  0  0  0  0  0  0
    7.1805   -0.8817   -2.6299 H   0  0  0  0  0  0  0  0  0  0  0  0
    8.3041   -1.9341   -1.7364 H   0  0  0  0  0  0  0  0  0  0  0  0
    6.9086   -2.6402   -2.5864 H   0  0  0  0  0  0  0  0  0  0  0  0
   -1.2297   -1.5628    1.3817 H   0  0  0  0  0  0  0  0  0  0  0  0
   -1.1346    0.2145    1.3597 H   0  0  0  0  0  0  0  0  0  0  0  0
   -2.1350    0.2401   -0.9090 H   0  0  0  0  0  0  0  0  0  0  0  0
   -2.2301   -1.5372   -0.8871 H   0  0  0  0  0  0  0  0  0  0  0  0
   -3.7090   -1.4336    1.1006 H   0  0  0  0  0  0  0  0  0  0  0  0
   -3.6139    0.3437    1.0787 H   0  0  0  0  0  0  0  0  0  0  0  0
   -4.6143    0.3692   -1.1901 H   0  0  0  0  0  0  0  0  0  0  0  0
   -4.7094   -1.4081   -1.1681 H   0  0  0  0  0  0  0  0  0  0  0  0
   -6.1882   -1.3044    0.8195 H   0  0  0  0  0  0  0  0  0  0  0  0
   -6.0931    0.4729    0.7976 H   0  0  0  0  0  0  0  0  0  0  0  0
   -7.0936    0.4984   -1.4711 H   0  0  0  0  0  0  0  0  0  0  0  0
   -7.1886   -1.2789   -1.4492 H   0  0  0  0  0  0  0  0  0  0  0  0
   -8.6675   -1.1752    0.5385 H   0  0  0  0  0  0  0  0  0  0  0  0
   -8.5724    0.6020    0.5166 H   0  0  0  0  0  0  0  0  0  0  0  0
   -9.5728    0.6276   -1.7522 H   0  0  0  0  0  0  0  0  0  0  0  0
   -9.6679   -1.1497   -1.7302 H   0  0  0  0  0  0  0  0  0  0  0  0
  -10.6441   -0.1921   -0.5908 H   0  0  0  0  0  0  0  0  0  0  0  0
   -0.2873    2.0028    0.9951 H   0  0  0  0  0  0  0  0  0  0  0  0
   -0.2457    4.0038   -0.4378 H   0  0  0  0  0  0  0  0  0  0  0  0
    1.8783    4.7799   -1.4095 H   0  0  0  0  0  0  0  0  0  0  0  0
    3.9647    3.5567   -0.9525 H   0  0  0  0  0  0  0  0  0  0  0  0
    3.9325    1.5586    0.4847 H   0  0  0  0  0  0  0  0  0  0  0  0
  1  2  2  0  0  0  0
  1  3  1  0  0  0  0
  3  4  1  0  0  0  0
  4  5  1  0  0  0  0
  5  6  1  0  0  0  0
  6  7  1  0  0  0  0
  1  8  1  0  0  0  0
  8  9  1  0  0  0  0
  9 10  1  0  0  0  0
 10 11  1  0  0  0  0
 11 12  1  0  0  0  0
 12 13  1  0  0  0  0
 13 14  1  0  0  0  0
 14 15  1  0  0  0  0
 15 16  1  0  0  0  0
  1 17  1  0  0  0  0
 17 18  1  0  0  0  0
 18 19  2  0  0  0  0
 19 20  1  0  0  0  0
 20 21  2  0  0  0  0
 21 22  1  0  0  0  0
 22 23  2  0  0  0  0
 18 23  1  0  0  0  0
  4 24  1  0  0  0  0
  4 25  1  0  0  0  0
  5 26  1  0  0  0  0
  5 27  1  0  0  0  0
  6 28  1  0  0  0  0
  6 29  1  0  0  0  0
  7 30  1  0  0  0  0
  7 31  1  0  0  0  0
  7 32  1  0  0  0  0
  9 33  1  0  0  0  0
  9 34  1  0  0  0  0
 10 35  1  0  0  0  0
 10 36  1  0  0  0  0
 11 37  1  0  0  0  0
 11 38  1  0  0  0  0
 12 39  1  0  0  0  0
 12 40  1  0  0  0  0
 13 41  1  0  0  0  0
 13 42  1  0  0  0  0
 14 43  1  0  0  0  0
 14 44  1  0  0  0  0
 15 45  1  0  0  0  0
 15 46  1  0  0  0  0
 16 47  1  0  0  0  0
 16 48  1  0  0  0  0
 16 49  1  0  0  0  0
 19 50  1  0  0  0  0
 20 51  1  0  0  0  0
 21 52  1  0  0  0  0
 22 53  1  0  0  0  0
 23 54  1  0  0  0  0
M  END
$$$$
