C15H11NO2
APtclcactv12211717053D 0   0.00000     0.00000
 
 29 31  0  0  0  0  0  0  0  0999 V2000
    1.6785   -2.0001    0.0687 C   0  0  0  0  0  0  0  0  0  0  0  0
    2.9786   -1.5281    0.1805 C   0  0  0  0  0  0  0  0  0  0  0  0
   -2.6751    1.6418    0.1197 C   0  0  0  0  0  0  0  0  0  0  0  0
   -3.1857   -1.0974    0.1605 C   0  0  0  0  0  0  0  0  0  0  0  0
   -3.9647    1.1706    0.2966 C   0  0  0  0  0  0  0  0  0  0  0  0
   -4.2181   -0.1889    0.3162 C   0  0  0  0  0  0  0  0  0  0  0  0
    4.6574    0.3175    0.2836 C   0  0  0  0  0  0  0  0  0  0  0  0
    1.7486    2.7378    0.1883 H   0  0  0  0  0  0  0  0  0  0  0  0
    3.3554    2.4195   -0.1853 H   0  0  0  0  0  0  0  0  0  0  0  0
    2.1944    0.7423    0.0278 C   0  0  0  0  0  0  0  0  0  0  0  0
    3.2384   -0.1749    0.1610 C   0  0  0  0  0  0  0  0  0  0  0  0
   -0.0287    2.3938   -0.4950 O   0  0  0  0  0  0  0  0  0  0  0  0
   -0.9889   -2.7675   -0.4168 O   0  0  0  0  0  0  0  0  0  0  0  0
   -0.2407    1.2271   -0.2271 C   0  0  0  0  0  0  0  0  0  0  0  0
   -0.7668   -1.5957   -0.1840 C   0  0  0  0  0  0  0  0  0  0  0  0
    0.8790    0.2795   -0.0859 C   0  0  0  0  0  0  0  0  0  0  0  0
    0.6238   -1.1064   -0.0645 C   0  0  0  0  0  0  0  0  0  0  0  0
   -1.6261    0.7425   -0.0376 C   0  0  0  0  0  0  0  0  0  0  0  0
   -1.8838   -0.6406   -0.0170 C   0  0  0  0  0  0  0  0  0  0  0  0
    2.4593    2.1027    0.0083 N   0  0  0  0  0  0  0  0  0  0  0  0
    1.4872   -3.0629    0.0807 H   0  0  0  0  0  0  0  0  0  0  0  0
    3.7947   -2.2279    0.2841 H   0  0  0  0  0  0  0  0  0  0  0  0
   -2.4842    2.7047    0.1046 H   0  0  0  0  0  0  0  0  0  0  0  0
    4.8992    0.4706    1.3353 H   0  0  0  0  0  0  0  0  0  0  0  0
    5.3364   -0.4216   -0.1416 H   0  0  0  0  0  0  0  0  0  0  0  0
    4.7627    1.2597   -0.2543 H   0  0  0  0  0  0  0  0  0  0  0  0
   -3.3901   -2.1578    0.1772 H   0  0  0  0  0  0  0  0  0  0  0  0
   -4.7788    1.8696    0.4191 H   0  0  0  0  0  0  0  0  0  0  0  0
   -5.2287   -0.5440    0.4537 H   0  0  0  0  0  0  0  0  0  0  0  0
 16 17  1  0  0  0  0
 14 16  1  0  0  0  0
 10 16  2  0  0  0  0
 15 17  1  0  0  0  0
  1 17  2  0  0  0  0
 14 18  1  0  0  0  0
 12 14  2  0  0  0  0
 10 11  1  0  0  0  0
 10 20  1  0  0  0  0
 15 19  1  0  0  0  0
 13 15  2  0  0  0  0
  1  2  1  0  0  0  0
  3 18  1  0  0  0  0
  7 11  1  0  0  0  0
  4 19  1  0  0  0  0
  3  5  2  0  0  0  0
  4  6  2  0  0  0  0
 18 19  2  0  0  0  0
  2 11  2  0  0  0  0
  5  6  1  0  0  0  0
  1 21  1  0  0  0  0
  8 20  1  0  0  0  0
  9 20  1  0  0  0  0
  2 22  1  0  0  0  0
  3 23  1  0  0  0  0
  7 24  1  0  0  0  0
  7 25  1  0  0  0  0
  7 26  1  0  0  0  0
  4 27  1  0  0  0  0
  5 28  1  0  0  0  0
  6 29  1  0  0  0  0
M  END
$$$$
