C15H15N3O2
APtclcactv12211717073D 0   0.00000     0.00000
 
 35 36  0  0  0  0  0  0  0  0999 V2000
    1.5803    1.2001   -0.2876 C   0  0  0  0  0  0  0  0  0  0  0  0
    1.1286   -1.1599   -0.1127 C   0  0  0  0  0  0  0  0  0  0  0  0
    2.9333    0.9368   -0.3341 C   0  0  0  0  0  0  0  0  0  0  0  0
    2.4819   -1.4216   -0.1602 C   0  0  0  0  0  0  0  0  0  0  0  0
   -5.1575    2.6854   -0.0592 C   0  0  0  0  0  0  0  0  0  0  0  0
    7.1176    0.0019    0.0738 C   0  0  0  0  0  0  0  0  0  0  0  0
   -1.0133    1.3329   -0.1735 H   0  0  0  0  0  0  0  0  0  0  0  0
    5.0838   -1.4501   -0.7447 H   0  0  0  0  0  0  0  0  0  0  0  0
    0.6716    0.1526   -0.1767 C   0  0  0  0  0  0  0  0  0  0  0  0
    3.3890   -0.3746   -0.2706 C   0  0  0  0  0  0  0  0  0  0  0  0
   -3.4459   -2.5598    0.1933 O   0  0  0  0  0  0  0  0  0  0  0  0
    5.2295    1.1898    0.8446 O   0  0  0  0  0  0  0  0  0  0  0  0
    5.6355    0.2273    0.2283 C   0  0  0  0  0  0  0  0  0  0  0  0
   -4.6599    1.2643    0.0031 C   0  0  0  0  0  0  0  0  0  0  0  0
   -2.8419   -0.3009    0.0191 C   0  0  0  0  0  0  0  0  0  0  0  0
   -3.8170   -1.3961    0.1358 C   0  0  0  0  0  0  0  0  0  0  0  0
   -3.3234    1.0268   -0.0443 C   0  0  0  0  0  0  0  0  0  0  0  0
   -5.5814    0.2250    0.1137 C   0  0  0  0  0  0  0  0  0  0  0  0
   -5.1853   -1.0753    0.1793 C   0  0  0  0  0  0  0  0  0  0  0  0
    4.7613   -0.6408   -0.3183 N   0  0  0  0  0  0  0  0  0  0  0  0
   -1.5373   -0.5539   -0.0263 N   0  0  0  0  0  0  0  0  0  0  0  0
   -0.6950    0.4176   -0.1292 N   0  0  0  0  0  0  0  0  0  0  0  0
    1.2265    2.2195   -0.3329 H   0  0  0  0  0  0  0  0  0  0  0  0
    0.4238   -1.9737   -0.0269 H   0  0  0  0  0  0  0  0  0  0  0  0
    3.6389    1.7500   -0.4203 H   0  0  0  0  0  0  0  0  0  0  0  0
    2.8368   -2.4405   -0.1112 H   0  0  0  0  0  0  0  0  0  0  0  0
   -2.6301    1.8504   -0.1306 H   0  0  0  0  0  0  0  0  0  0  0  0
   -6.6356    0.4571    0.1481 H   0  0  0  0  0  0  0  0  0  0  0  0
   -5.9218   -1.8606    0.2647 H   0  0  0  0  0  0  0  0  0  0  0  0
   -5.3247    2.9666   -1.0989 H   0  0  0  0  0  0  0  0  0  0  0  0
   -6.0929    2.7675    0.4943 H   0  0  0  0  0  0  0  0  0  0  0  0
   -4.4148    3.3501    0.3820 H   0  0  0  0  0  0  0  0  0  0  0  0
    7.4813   -0.6046    0.9032 H   0  0  0  0  0  0  0  0  0  0  0  0
    7.3104   -0.5150   -0.8663 H   0  0  0  0  0  0  0  0  0  0  0  0
    7.6329    0.9624    0.0727 H   0  0  0  0  0  0  0  0  0  0  0  0
 11 16  2  0  0  0  0
 12 13  2  0  0  0  0
 21 22  1  0  0  0  0
  9 22  1  0  0  0  0
  7 22  1  0  0  0  0
 10 20  1  0  0  0  0
 13 20  1  0  0  0  0
  8 20  1  0  0  0  0
 15 21  2  0  0  0  0
  1  9  2  0  0  0  0
  2  9  1  0  0  0  0
  3 10  2  0  0  0  0
  4 10  1  0  0  0  0
 14 17  2  0  0  0  0
 14 18  1  0  0  0  0
  5 14  1  0  0  0  0
 15 17  1  0  0  0  0
 15 16  1  0  0  0  0
  1  3  1  0  0  0  0
  1 23  1  0  0  0  0
  2  4  2  0  0  0  0
  2 24  1  0  0  0  0
  3 25  1  0  0  0  0
  4 26  1  0  0  0  0
 17 27  1  0  0  0  0
 18 19  2  0  0  0  0
 18 28  1  0  0  0  0
 16 19  1  0  0  0  0
 19 29  1  0  0  0  0
  5 30  1  0  0  0  0
  5 31  1  0  0  0  0
  5 32  1  0  0  0  0
  6 13  1  0  0  0  0
  6 33  1  0  0  0  0
  6 34  1  0  0  0  0
  6 35  1  0  0  0  0
M  END
$$$$
