C15H12N2O3
APtclcactv12211717093D 0   0.00000     0.00000
 
 32 34  0  0  0  0  0  0  0  0999 V2000
    2.6971   -1.0560    0.1014 C   0  0  0  0  0  0  0  0  0  0  0  0
   -3.2286    1.5976    0.1562 C   0  0  0  0  0  0  0  0  0  0  0  0
   -3.4863   -1.1770    0.1820 C   0  0  0  0  0  0  0  0  0  0  0  0
   -4.4662    1.0097    0.3490 C   0  0  0  0  0  0  0  0  0  0  0  0
   -4.5941   -0.3675    0.3616 C   0  0  0  0  0  0  0  0  0  0  0  0
    5.1729   -0.0162    0.2933 C   0  0  0  0  0  0  0  0  0  0  0  0
    1.0715    3.0863    0.1606 H   0  0  0  0  0  0  0  0  0  0  0  0
    2.6951    2.9181   -0.2369 H   0  0  0  0  0  0  0  0  0  0  0  0
    2.0853   -3.5850   -0.1767 H   0  0  0  0  0  0  0  0  0  0  0  0
    0.4592   -3.4382    0.2197 H   0  0  0  0  0  0  0  0  0  0  0  0
    1.6945    1.1402   -0.0210 C   0  0  0  0  0  0  0  0  0  0  0  0
    1.4365   -1.6477    0.0049 C   0  0  0  0  0  0  0  0  0  0  0  0
    2.8292    0.3164    0.0890 C   0  0  0  0  0  0  0  0  0  0  0  0
   -0.6710    2.5915   -0.4930 O   0  0  0  0  0  0  0  0  0  0  0  0
   -1.1583   -2.6379   -0.4455 O   0  0  0  0  0  0  0  0  0  0  0  0
    4.0621    0.8761    0.1841 O   0  0  0  0  0  0  0  0  0  0  0  0
   -0.7729    1.4079   -0.2322 C   0  0  0  0  0  0  0  0  0  0  0  0
   -1.0385   -1.4511   -0.2056 C   0  0  0  0  0  0  0  0  0  0  0  0
    0.4280    0.5638   -0.1178 C   0  0  0  0  0  0  0  0  0  0  0  0
    0.2958   -0.8444   -0.1048 C   0  0  0  0  0  0  0  0  0  0  0  0
   -2.1046    0.7986   -0.0256 C   0  0  0  0  0  0  0  0  0  0  0  0
   -2.2347   -0.6025   -0.0126 C   0  0  0  0  0  0  0  0  0  0  0  0
    1.8344    2.5197   -0.0337 N   0  0  0  0  0  0  0  0  0  0  0  0
    1.3149   -3.0285    0.0172 N   0  0  0  0  0  0  0  0  0  0  0  0
    3.5755   -1.6780    0.1909 H   0  0  0  0  0  0  0  0  0  0  0  0
   -3.1357    2.6736    0.1467 H   0  0  0  0  0  0  0  0  0  0  0  0
   -3.5932   -2.2516    0.1933 H   0  0  0  0  0  0  0  0  0  0  0  0
   -5.3386    1.6305    0.4902 H   0  0  0  0  0  0  0  0  0  0  0  0
   -5.5657   -0.8143    0.5123 H   0  0  0  0  0  0  0  0  0  0  0  0
    6.0960    0.5595    0.3618 H   0  0  0  0  0  0  0  0  0  0  0  0
    5.0599   -0.6294    1.1873 H   0  0  0  0  0  0  0  0  0  0  0  0
    5.2102   -0.6592   -0.5861 H   0  0  0  0  0  0  0  0  0  0  0  0
 14 17  2  0  0  0  0
 15 18  2  0  0  0  0
 13 16  1  0  0  0  0
  6 16  1  0  0  0  0
 11 23  1  0  0  0  0
 12 24  1  0  0  0  0
 19 20  1  0  0  0  0
 17 19  1  0  0  0  0
 11 19  2  0  0  0  0
 18 20  1  0  0  0  0
 12 20  2  0  0  0  0
 17 21  1  0  0  0  0
 18 22  1  0  0  0  0
 21 22  1  0  0  0  0
  2 21  2  0  0  0  0
  3 22  2  0  0  0  0
 11 13  1  0  0  0  0
  1 12  1  0  0  0  0
  1 13  2  0  0  0  0
  2  4  1  0  0  0  0
  3  5  1  0  0  0  0
  4  5  2  0  0  0  0
  7 23  1  0  0  0  0
  8 23  1  0  0  0  0
  9 24  1  0  0  0  0
 10 24  1  0  0  0  0
  1 25  1  0  0  0  0
  2 26  1  0  0  0  0
  3 27  1  0  0  0  0
  4 28  1  0  0  0  0
  5 29  1  0  0  0  0
  6 30  1  0  0  0  0
  6 31  1  0  0  0  0
  6 32  1  0  0  0  0
M  END
$$$$
