C16H14N2O4
APtclcactv12211717113D 0   0.00000     0.00000
 
 36 38  0  0  0  0  0  0  0  0999 V2000
   -3.6423    0.9166   -0.0243 C   0  0  0  0  0  0  0  0  0  0  0  0
   -3.0659    2.1662   -0.0109 C   0  0  0  0  0  0  0  0  0  0  0  0
    3.0661   -2.1659    0.0237 C   0  0  0  0  0  0  0  0  0  0  0  0
    3.6424   -0.9162    0.0367 C   0  0  0  0  0  0  0  0  0  0  0  0
   -4.8900   -1.6143    0.0873 C   0  0  0  0  0  0  0  0  0  0  0  0
    4.8893    1.6151   -0.0739 C   0  0  0  0  0  0  0  0  0  0  0  0
   -2.8852   -2.2795   -0.1285 H   0  0  0  0  0  0  0  0  0  0  0  0
   -0.9514    3.9065   -0.8632 H   0  0  0  0  0  0  0  0  0  0  0  0
    0.9696   -3.8966   -0.8904 H   0  0  0  0  0  0  0  0  0  0  0  0
    2.8841    2.2795    0.1397 H   0  0  0  0  0  0  0  0  0  0  0  0
   -2.8464   -0.2300   -0.0238 C   0  0  0  0  0  0  0  0  0  0  0  0
   -1.6793    2.3060    0.0030 C   0  0  0  0  0  0  0  0  0  0  0  0
    1.6795   -2.3062    0.0088 C   0  0  0  0  0  0  0  0  0  0  0  0
    2.8461    0.2301    0.0352 C   0  0  0  0  0  0  0  0  0  0  0  0
   -1.1100   -2.4166   -0.0193 O   0  0  0  0  0  0  0  0  0  0  0  0
    1.1098    2.4161    0.0302 O   0  0  0  0  0  0  0  0  0  0  0  0
   -1.1217    3.5424    0.0163 O   0  0  0  0  0  0  0  0  0  0  0  0
    1.1224   -3.5429   -0.0035 O   0  0  0  0  0  0  0  0  0  0  0  0
   -0.6024   -1.3109   -0.0082 C   0  0  0  0  0  0  0  0  0  0  0  0
    0.6022    1.3104    0.0191 C   0  0  0  0  0  0  0  0  0  0  0  0
   -1.4524   -0.1094   -0.0094 C   0  0  0  0  0  0  0  0  0  0  0  0
   -0.8645    1.1718    0.0039 C   0  0  0  0  0  0  0  0  0  0  0  0
    0.8644   -1.1723    0.0070 C   0  0  0  0  0  0  0  0  0  0  0  0
    1.4522    0.1089    0.0204 C   0  0  0  0  0  0  0  0  0  0  0  0
   -3.4359   -1.4862   -0.0370 N   0  0  0  0  0  0  0  0  0  0  0  0
    3.4351    1.4865    0.0489 N   0  0  0  0  0  0  0  0  0  0  0  0
   -4.7182    0.8224   -0.0308 H   0  0  0  0  0  0  0  0  0  0  0  0
   -3.6930    3.0455   -0.0115 H   0  0  0  0  0  0  0  0  0  0  0  0
   -5.3728   -1.0882   -0.7362 H   0  0  0  0  0  0  0  0  0  0  0  0
   -5.1659   -2.6684    0.0565 H   0  0  0  0  0  0  0  0  0  0  0  0
   -5.2133   -1.1817    1.0341 H   0  0  0  0  0  0  0  0  0  0  0  0
    3.6934   -3.0450    0.0247 H   0  0  0  0  0  0  0  0  0  0  0  0
    4.7182   -0.8218    0.0486 H   0  0  0  0  0  0  0  0  0  0  0  0
    5.3715    1.0892    0.7502 H   0  0  0  0  0  0  0  0  0  0  0  0
    5.2137    1.1824   -1.0203 H   0  0  0  0  0  0  0  0  0  0  0  0
    5.1647    2.6692   -0.0430 H   0  0  0  0  0  0  0  0  0  0  0  0
 21 22  2  0  0  0  0
 19 21  1  0  0  0  0
 11 21  1  0  0  0  0
 20 22  1  0  0  0  0
 12 22  1  0  0  0  0
 19 23  1  0  0  0  0
 15 19  2  0  0  0  0
  1 11  2  0  0  0  0
 11 25  1  0  0  0  0
 20 24  1  0  0  0  0
 16 20  2  0  0  0  0
  2 12  2  0  0  0  0
 12 17  1  0  0  0  0
 13 23  1  0  0  0  0
  5 25  1  0  0  0  0
 14 24  1  0  0  0  0
  3 13  2  0  0  0  0
 13 18  1  0  0  0  0
  4 14  2  0  0  0  0
 14 26  1  0  0  0  0
  6 26  1  0  0  0  0
 23 24  2  0  0  0  0
  1  2  1  0  0  0  0
  3  4  1  0  0  0  0
  1 27  1  0  0  0  0
  7 25  1  0  0  0  0
  2 28  1  0  0  0  0
  8 17  1  0  0  0  0
  5 29  1  0  0  0  0
  5 30  1  0  0  0  0
  5 31  1  0  0  0  0
  3 32  1  0  0  0  0
  9 18  1  0  0  0  0
  4 33  1  0  0  0  0
 10 26  1  0  0  0  0
  6 34  1  0  0  0  0
  6 35  1  0  0  0  0
  6 36  1  0  0  0  0
M  END
$$$$
