C16H10N2Na2O8S2
APtclcactv12211717103D 0   0.00000     0.00000
 
 40 41  0  0  0  0  0  0  0  0999 V2000
    1.6779   -2.8710    0.2811 C   0  0  0  0  0  0  0  0  0  0  0  0
   -5.6194    1.9543   -0.2734 C   0  0  0  0  0  0  0  0  0  0  0  0
    2.1157   -0.5942   -1.2564 C   0  0  0  0  0  0  0  0  0  0  0  0
   -6.0581   -0.3241    1.2615 C   0  0  0  0  0  0  0  0  0  0  0  0
    3.1340   -1.4984   -1.0366 C   0  0  0  0  0  0  0  0  0  0  0  0
   -7.0758    0.5812    1.0435 C   0  0  0  0  0  0  0  0  0  0  0  0
   -0.4089    0.7643   -1.2588 H   0  0  0  0  0  0  0  0  0  0  0  0
   -3.5338   -1.6831    1.2630 H   0  0  0  0  0  0  0  0  0  0  0  0
    2.9182   -2.6338   -0.2710 C   0  0  0  0  0  0  0  0  0  0  0  0
   -6.8597    1.7172    0.2787 C   0  0  0  0  0  0  0  0  0  0  0  0
   -1.3449   -2.7484    1.1989 O   0  0  0  0  0  0  0  0  0  0  0  0
   -2.5964    1.8321   -1.1905 O   0  0  0  0  0  0  0  0  0  0  0  0
    5.4398   -3.0477   -0.1815 O   0  0  0  0  0  0  0  0  0  0  0  0
    3.9178   -4.4766    1.1929 O   0  0  0  0  0  0  0  0  0  0  0  0
   -9.0870    2.6792    1.0859 O   0  0  0  0  0  0  0  0  0  0  0  0
   -7.5644    4.1092   -0.2868 O   0  0  0  0  0  0  0  0  0  0  0  0
    4.1774   -4.7992   -1.1278 O   0  0  0  0  0  0  0  0  0  0  0  0
   -8.9021    2.4241   -1.2503 O   0  0  0  0  0  0  0  0  0  0  0  0
   -1.3258   -0.6877   -0.0688 C   0  0  0  0  0  0  0  0  0  0  0  0
   -2.6163   -0.2299    0.0749 C   0  0  0  0  0  0  0  0  0  0  0  0
   -0.7675   -1.9299    0.5079 C   0  0  0  0  0  0  0  0  0  0  0  0
   -3.1743    1.0128   -0.5010 C   0  0  0  0  0  0  0  0  0  0  0  0
    4.8631   -5.4791   -1.0753 H   0  0  0  0  0  0  0  0  0  0  0  0
   -9.6489    2.9900   -1.4892 H   0  0  0  0  0  0  0  0  0  0  0  0
    0.6390   -1.9636    0.0666 C   0  0  0  0  0  0  0  0  0  0  0  0
   -4.5809    1.0463   -0.0600 C   0  0  0  0  0  0  0  0  0  0  0  0
    0.8550   -0.8134   -0.7082 C   0  0  0  0  0  0  0  0  0  0  0  0
   -4.7972   -0.1045    0.7137 C   0  0  0  0  0  0  0  0  0  0  0  0
    4.2328   -3.7759   -0.0025 S   0  0  0  0  0  0  0  0  0  0  0  0
   -8.1735    2.8608    0.0127 S   0  0  0  0  0  0  0  0  0  0  0  0
   -0.3144   -0.0725   -0.7775 N   0  0  0  0  0  0  0  0  0  0  0  0
   -3.6279   -0.8456    0.7828 N   0  0  0  0  0  0  0  0  0  0  0  0
   14.3889    2.3797   -0.3496 Na  0  3  0  0  0  0  0  0  0  0  0  0
   21.9916    6.3628    0.8058 Na  0  3  0  0  0  0  0  0  0  0  0  0
    1.5091   -3.7579    0.8738 H   0  0  0  0  0  0  0  0  0  0  0  0
   -5.4528    2.8372   -0.8727 H   0  0  0  0  0  0  0  0  0  0  0  0
    2.2972    0.2866   -1.8545 H   0  0  0  0  0  0  0  0  0  0  0  0
   -6.2397   -1.2049    1.8594 H   0  0  0  0  0  0  0  0  0  0  0  0
    4.1090   -1.3203   -1.4657 H   0  0  0  0  0  0  0  0  0  0  0  0
   -8.0509    0.4029    1.4723 H   0  0  0  0  0  0  0  0  0  0  0  0
 17 29  1  0  0  0  0
 13 29  2  0  0  0  0
 14 29  2  0  0  0  0
  9 29  1  0  0  0  0
 18 30  1  0  0  0  0
 15 30  2  0  0  0  0
 16 30  2  0  0  0  0
 10 30  1  0  0  0  0
 11 21  2  0  0  0  0
 12 22  2  0  0  0  0
 17 23  1  0  0  0  0
 18 24  1  0  0  0  0
 19 31  1  0  0  0  0
 27 31  1  0  0  0  0
  7 31  1  0  0  0  0
 20 32  1  0  0  0  0
 28 32  1  0  0  0  0
  8 32  1  0  0  0  0
 19 20  2  0  0  0  0
 19 21  1  0  0  0  0
 20 22  1  0  0  0  0
 25 27  2  0  0  0  0
 21 25  1  0  0  0  0
  1 25  1  0  0  0  0
 26 28  2  0  0  0  0
 22 26  1  0  0  0  0
  2 26  1  0  0  0  0
  3 27  1  0  0  0  0
  4 28  1  0  0  0  0
  1  9  2  0  0  0  0
  1 35  1  0  0  0  0
  2 10  2  0  0  0  0
  2 36  1  0  0  0  0
  3  5  2  0  0  0  0
  3 37  1  0  0  0  0
  4  6  2  0  0  0  0
  4 38  1  0  0  0  0
  5  9  1  0  0  0  0
  6 10  1  0  0  0  0
  5 39  1  0  0  0  0
  6 40  1  0  0  0  0
M  CHG  2  33   1  34   1
M  END
$$$$
