C16H17ClN4O4
APtclcactv12211717123D 0   0.00000     0.00000
 
 42 43  0  0  0  0  0  0  0  0999 V2000
   -2.6849    1.0837    0.3349 C   0  0  0  0  0  0  0  0  0  0  0  0
   -2.4189   -1.2268   -0.3084 C   0  0  0  0  0  0  0  0  0  0  0  0
   -1.0508   -1.0813   -0.2863 C   0  0  0  0  0  0  0  0  0  0  0  0
    3.8218   -1.6299   -0.5009 C   0  0  0  0  0  0  0  0  0  0  0  0
    3.5580    0.6840    0.1438 C   0  0  0  0  0  0  0  0  0  0  0  0
    5.1917   -1.4727   -0.4752 C   0  0  0  0  0  0  0  0  0  0  0  0
    4.9296    0.8262    0.1654 C   0  0  0  0  0  0  0  0  0  0  0  0
   -5.2139   -1.5939   -0.3743 C   0  0  0  0  0  0  0  0  0  0  0  0
   -5.4929    0.8356    0.3027 C   0  0  0  0  0  0  0  0  0  0  0  0
   -5.4007   -2.4299    0.8935 C   0  0  0  0  0  0  0  0  0  0  0  0
   -5.8130    1.6159   -0.9739 C   0  0  0  0  0  0  0  0  0  0  0  0
   -4.1647   -3.2646    2.2634 H   0  0  0  0  0  0  0  0  0  0  0  0
   -6.8205    1.2248   -2.6865 H   0  0  0  0  0  0  0  0  0  0  0  0
   -3.2416   -0.1469    0.0011 C   0  0  0  0  0  0  0  0  0  0  0  0
   -1.3158    1.2382    0.3599 C   0  0  0  0  0  0  0  0  0  0  0  0
   -0.4855    0.1543    0.0487 C   0  0  0  0  0  0  0  0  0  0  0  0
    2.9921   -0.5492   -0.1906 C   0  0  0  0  0  0  0  0  0  0  0  0
    5.7450   -0.2485   -0.1431 C   0  0  0  0  0  0  0  0  0  0  0  0
    7.9368   -1.0320   -0.3878 O   0  0  0  0  0  0  0  0  0  0  0  0
   -4.1227   -2.7353    1.4552 O   0  0  0  0  0  0  0  0  0  0  0  0
   -6.5810    0.7936   -1.8548 O   0  0  0  0  0  0  0  0  0  0  0  0
   -0.6215    2.7740    0.7759 Cl  0  0  0  0  0  0  0  0  0  0  0  0
    0.8700    0.3022    0.0725 N   0  0  0  0  0  0  0  0  0  0  0  0
    1.6331   -0.6975   -0.2144 N   0  0  0  0  0  0  0  0  0  0  0  0
    7.7064    0.9882    0.1746 O   0  5  0  0  0  0  0  0  0  0  0  0
   -4.6254   -0.2990   -0.0231 N   0  0  0  0  0  0  0  0  0  0  0  0
    7.2163   -0.0879   -0.1172 N   0  3  0  0  0  0  0  0  0  0  0  0
   -3.3265    1.9199    0.5704 H   0  0  0  0  0  0  0  0  0  0  0  0
   -2.8554   -2.1803   -0.5666 H   0  0  0  0  0  0  0  0  0  0  0  0
   -4.5513   -2.1196   -1.0618 H   0  0  0  0  0  0  0  0  0  0  0  0
   -6.1812   -1.4360   -0.8512 H   0  0  0  0  0  0  0  0  0  0  0  0
   -4.9846    1.4901    1.0107 H   0  0  0  0  0  0  0  0  0  0  0  0
   -6.4187    0.4695    0.7465 H   0  0  0  0  0  0  0  0  0  0  0  0
   -0.4140   -1.9199   -0.5263 H   0  0  0  0  0  0  0  0  0  0  0  0
   -5.9902   -1.8664    1.6167 H   0  0  0  0  0  0  0  0  0  0  0  0
   -5.9190   -3.3559    0.6449 H   0  0  0  0  0  0  0  0  0  0  0  0
   -6.3841    2.5090   -0.7203 H   0  0  0  0  0  0  0  0  0  0  0  0
   -4.8841    1.9059   -1.4650 H   0  0  0  0  0  0  0  0  0  0  0  0
    3.3913   -2.5847   -0.7645 H   0  0  0  0  0  0  0  0  0  0  0  0
    2.9228    1.5235    0.3851 H   0  0  0  0  0  0  0  0  0  0  0  0
    5.8343   -2.3072   -0.7144 H   0  0  0  0  0  0  0  0  0  0  0  0
    5.3684    1.7788    0.4233 H   0  0  0  0  0  0  0  0  0  0  0  0
 14 26  1  0  0  0  0
  1 14  2  0  0  0  0
  2 14  1  0  0  0  0
  8 26  1  0  0  0  0
  9 26  1  0  0  0  0
  1 15  1  0  0  0  0
  2  3  2  0  0  0  0
  8 10  1  0  0  0  0
  9 11  1  0  0  0  0
 15 16  2  0  0  0  0
 15 22  1  0  0  0  0
 10 20  1  0  0  0  0
 11 21  1  0  0  0  0
 16 23  1  0  0  0  0
 23 24  2  0  0  0  0
 17 24  1  0  0  0  0
  4 17  2  0  0  0  0
  5 17  1  0  0  0  0
  4  6  1  0  0  0  0
  5  7  2  0  0  0  0
  6 18  2  0  0  0  0
 18 27  1  0  0  0  0
 19 27  2  0  0  0  0
 25 27  1  0  0  0  0
  3 16  1  0  0  0  0
  7 18  1  0  0  0  0
  1 28  1  0  0  0  0
  2 29  1  0  0  0  0
  8 30  1  0  0  0  0
  8 31  1  0  0  0  0
  9 32  1  0  0  0  0
  9 33  1  0  0  0  0
  3 34  1  0  0  0  0
 10 35  1  0  0  0  0
 10 36  1  0  0  0  0
 11 37  1  0  0  0  0
 11 38  1  0  0  0  0
 12 20  1  0  0  0  0
 13 21  1  0  0  0  0
  4 39  1  0  0  0  0
  5 40  1  0  0  0  0
  6 41  1  0  0  0  0
  7 42  1  0  0  0  0
M  CHG  2  25  -1  27   1
M  END
$$$$
