C16H13NO3
APtclcactv12211717103D 0   0.00000     0.00000
 
 33 35  0  0  0  0  0  0  0  0999 V2000
    3.9391    0.2121   -0.0981 C   0  0  0  0  0  0  0  0  0  0  0  0
    2.1762    2.3574    0.1119 C   0  0  0  0  0  0  0  0  0  0  0  0
    3.5415    2.5751    0.0550 C   0  0  0  0  0  0  0  0  0  0  0  0
    4.4171    1.5096   -0.0497 C   0  0  0  0  0  0  0  0  0  0  0  0
    0.0919   -2.9439   -0.0806 C   0  0  0  0  0  0  0  0  0  0  0  0
   -1.2758   -3.1654   -0.0242 C   0  0  0  0  0  0  0  0  0  0  0  0
   -2.1541   -2.1081    0.0798 C   0  0  0  0  0  0  0  0  0  0  0  0
   -4.0058    0.0223    0.1546 C   0  0  0  0  0  0  0  0  0  0  0  0
   -4.7527    1.3500    0.2979 C   0  0  0  0  0  0  0  0  0  0  0  0
   -2.2276    1.1641    0.3609 H   0  0  0  0  0  0  0  0  0  0  0  0
   -4.8871    3.0518   -0.7915 H   0  0  0  0  0  0  0  0  0  0  0  0
   -1.6768   -0.7981    0.1301 C   0  0  0  0  0  0  0  0  0  0  0  0
    2.8163   -2.3439   -0.1849 O   0  0  0  0  0  0  0  0  0  0  0  0
   -0.5479    1.7536    0.2169 O   0  0  0  0  0  0  0  0  0  0  0  0
   -4.4471    2.1911   -0.8162 O   0  0  0  0  0  0  0  0  0  0  0  0
    2.0480   -1.4070   -0.0929 C   0  0  0  0  0  0  0  0  0  0  0  0
    0.2212    0.8165    0.1248 C   0  0  0  0  0  0  0  0  0  0  0  0
    2.5683   -0.0249   -0.0415 C   0  0  0  0  0  0  0  0  0  0  0  0
    1.6783    1.0585    0.0646 C   0  0  0  0  0  0  0  0  0  0  0  0
    0.5912   -1.6471   -0.0326 C   0  0  0  0  0  0  0  0  0  0  0  0
   -0.2977   -0.5603    0.0736 C   0  0  0  0  0  0  0  0  0  0  0  0
   -2.5629    0.2626    0.2347 N   0  0  0  0  0  0  0  0  0  0  0  0
    4.6280   -0.6152   -0.1840 H   0  0  0  0  0  0  0  0  0  0  0  0
    1.4981    3.1940    0.1937 H   0  0  0  0  0  0  0  0  0  0  0  0
    3.9260    3.5837    0.0919 H   0  0  0  0  0  0  0  0  0  0  0  0
    5.4807    1.6915   -0.0938 H   0  0  0  0  0  0  0  0  0  0  0  0
    0.7705   -3.7801   -0.1617 H   0  0  0  0  0  0  0  0  0  0  0  0
   -1.6564   -4.1754   -0.0624 H   0  0  0  0  0  0  0  0  0  0  0  0
   -3.2169   -2.2947    0.1228 H   0  0  0  0  0  0  0  0  0  0  0  0
   -4.3069   -0.6523    0.9561 H   0  0  0  0  0  0  0  0  0  0  0  0
   -4.2463   -0.4277   -0.8086 H   0  0  0  0  0  0  0  0  0  0  0  0
   -5.8259    1.1618    0.3275 H   0  0  0  0  0  0  0  0  0  0  0  0
   -4.4446    1.8424    1.2203 H   0  0  0  0  0  0  0  0  0  0  0  0
 18 19  2  0  0  0  0
  1 18  1  0  0  0  0
 16 18  1  0  0  0  0
  2 19  1  0  0  0  0
 17 19  1  0  0  0  0
  1  4  2  0  0  0  0
 16 20  1  0  0  0  0
 13 16  2  0  0  0  0
  2  3  2  0  0  0  0
 17 21  1  0  0  0  0
 14 17  2  0  0  0  0
  3  4  1  0  0  0  0
 20 21  2  0  0  0  0
  5 20  1  0  0  0  0
 12 21  1  0  0  0  0
  5  6  2  0  0  0  0
  7 12  2  0  0  0  0
 12 22  1  0  0  0  0
  6  7  1  0  0  0  0
  8 22  1  0  0  0  0
  8  9  1  0  0  0  0
  9 15  1  0  0  0  0
  1 23  1  0  0  0  0
  2 24  1  0  0  0  0
  3 25  1  0  0  0  0
  4 26  1  0  0  0  0
  5 27  1  0  0  0  0
  6 28  1  0  0  0  0
  7 29  1  0  0  0  0
 10 22  1  0  0  0  0
  8 30  1  0  0  0  0
  8 31  1  0  0  0  0
  9 32  1  0  0  0  0
  9 33  1  0  0  0  0
 11 15  1  0  0  0  0
M  END
$$$$
