C8H16O2
APtclcactv12151716373D 0   0.00000     0.00000
 
 26 25  0  0  0  0  0  0  0  0999 V2000
    3.3307    0.0432   -0.0015 C   0  0  0  0  0  0  0  0  0  0  0  0
    2.0430   -0.7396   -0.0019 C   0  0  0  0  0  0  0  0  0  0  0  0
    0.8579    0.2281   -0.0007 C   0  0  0  0  0  0  0  0  0  0  0  0
   -0.4495   -0.5666   -0.0011 C   0  0  0  0  0  0  0  0  0  0  0  0
   -1.6346    0.4011    0.0002 C   0  0  0  0  0  0  0  0  0  0  0  0
   -2.9420   -0.3937   -0.0002 C   0  0  0  0  0  0  0  0  0  0  0  0
   -4.1271    0.5741    0.0010 C   0  0  0  0  0  0  0  0  0  0  0  0
   -5.4345   -0.2207    0.0006 C   0  0  0  0  0  0  0  0  0  0  0  0
    3.3034    1.2511   -0.0004 O   0  0  0  0  0  0  0  0  0  0  0  0
    4.5080   -0.6015    0.0031 O   0  0  0  0  0  0  0  0  0  0  0  0
    1.9992   -1.3666   -0.8925 H   0  0  0  0  0  0  0  0  0  0  0  0
    1.9997   -1.3683    0.8875 H   0  0  0  0  0  0  0  0  0  0  0  0
    0.9017    0.8550    0.8899 H   0  0  0  0  0  0  0  0  0  0  0  0
    0.9012    0.8568   -0.8901 H   0  0  0  0  0  0  0  0  0  0  0  0
   -0.4933   -1.1936   -0.8917 H   0  0  0  0  0  0  0  0  0  0  0  0
   -0.4928   -1.1953    0.8883 H   0  0  0  0  0  0  0  0  0  0  0  0
   -1.5908    1.0280    0.8908 H   0  0  0  0  0  0  0  0  0  0  0  0
   -1.5913    1.0297   -0.8892 H   0  0  0  0  0  0  0  0  0  0  0  0
   -2.9858   -1.0206   -0.8908 H   0  0  0  0  0  0  0  0  0  0  0  0
   -2.9853   -1.0223    0.8892 H   0  0  0  0  0  0  0  0  0  0  0  0
   -4.0833    1.2010    0.8916 H   0  0  0  0  0  0  0  0  0  0  0  0
   -4.0837    1.2027   -0.8884 H   0  0  0  0  0  0  0  0  0  0  0  0
   -5.4783   -0.8476   -0.8900 H   0  0  0  0  0  0  0  0  0  0  0  0
   -5.4778   -0.8493    0.8900 H   0  0  0  0  0  0  0  0  0  0  0  0
   -6.2787    0.4687    0.0015 H   0  0  0  0  0  0  0  0  0  0  0  0
    5.3069   -0.0567    0.0032 H   0  0  0  0  0  0  0  0  0  0  0  0
  1  2  1  0  0  0  0
  2  3  1  0  0  0  0
  3  4  1  0  0  0  0
  4  5  1  0  0  0  0
  5  6  1  0  0  0  0
  6  7  1  0  0  0  0
  7  8  1  0  0  0  0
  1  9  2  0  0  0  0
  1 10  1  0  0  0  0
  2 11  1  0  0  0  0
  2 12  1  0  0  0  0
  3 13  1  0  0  0  0
  3 14  1  0  0  0  0
  4 15  1  0  0  0  0
  4 16  1  0  0  0  0
  5 17  1  0  0  0  0
  5 18  1  0  0  0  0
  6 19  1  0  0  0  0
  6 20  1  0  0  0  0
  7 21  1  0  0  0  0
  7 22  1  0  0  0  0
  8 23  1  0  0  0  0
  8 24  1  0  0  0  0
  8 25  1  0  0  0  0
 10 26  1  0  0  0  0
M  END
$$$$
