C6H13NO
APtclcactv12211716593D 0   0.00000     0.00000
 
 21 20  0  0  0  0  0  0  0  0999 V2000
    2.1836    0.0242   -0.0017 C   0  0  0  0  0  0  0  0  0  0  0  0
    0.8724   -0.7187   -0.0022 C   0  0  0  0  0  0  0  0  0  0  0  0
   -0.2824    0.2849   -0.0003 C   0  0  0  0  0  0  0  0  0  0  0  0
   -1.6136   -0.4694   -0.0007 C   0  0  0  0  0  0  0  0  0  0  0  0
   -2.7684    0.5342    0.0011 C   0  0  0  0  0  0  0  0  0  0  0  0
   -4.0996   -0.2200    0.0007 C   0  0  0  0  0  0  0  0  0  0  0  0
    2.1934    1.2370   -0.0001 O   0  0  0  0  0  0  0  0  0  0  0  0
    3.3453   -0.6591    0.0024 N   0  0  0  0  0  0  0  0  0  0  0  0
    0.8093   -1.3437   -0.8930 H   0  0  0  0  0  0  0  0  0  0  0  0
    0.8100   -1.3461    0.8870 H   0  0  0  0  0  0  0  0  0  0  0  0
   -0.2192    0.9099    0.8905 H   0  0  0  0  0  0  0  0  0  0  0  0
   -0.2200    0.9123   -0.8895 H   0  0  0  0  0  0  0  0  0  0  0  0
   -1.6768   -1.0943   -0.8915 H   0  0  0  0  0  0  0  0  0  0  0  0
   -1.6760   -1.0967    0.8884 H   0  0  0  0  0  0  0  0  0  0  0  0
   -2.7052    1.1592    0.8919 H   0  0  0  0  0  0  0  0  0  0  0  0
   -2.7060    1.1616   -0.8881 H   0  0  0  0  0  0  0  0  0  0  0  0
   -4.1628   -0.8450   -0.8901 H   0  0  0  0  0  0  0  0  0  0  0  0
   -4.1620   -0.8474    0.8899 H   0  0  0  0  0  0  0  0  0  0  0  0
   -4.9223    0.4950    0.0020 H   0  0  0  0  0  0  0  0  0  0  0  0
    3.3375   -1.6291    0.0052 H   0  0  0  0  0  0  0  0  0  0  0  0
    4.1892   -0.1809    0.0027 H   0  0  0  0  0  0  0  0  0  0  0  0
  1  2  1  0  0  0  0
  2  3  1  0  0  0  0
  3  4  1  0  0  0  0
  4  5  1  0  0  0  0
  5  6  1  0  0  0  0
  1  7  2  0  0  0  0
  1  8  1  0  0  0  0
  2  9  1  0  0  0  0
  2 10  1  0  0  0  0
  3 11  1  0  0  0  0
  3 12  1  0  0  0  0
  4 13  1  0  0  0  0
  4 14  1  0  0  0  0
  5 15  1  0  0  0  0
  5 16  1  0  0  0  0
  6 17  1  0  0  0  0
  6 18  1  0  0  0  0
  6 19  1  0  0  0  0
  8 20  1  0  0  0  0
  8 21  1  0  0  0  0
M  END
$$$$
