C6H11NO
APtclcactv12211716563D 0   0.00000     0.00000
 
 19 19  0  0  0  0  0  0  0  0999 V2000
   -1.2396    0.0272   -0.0463 C   0  0  0  0  0  0  0  0  0  0  0  0
   -0.4924   -1.1272   -0.6803 C   0  0  0  0  0  0  0  0  0  0  0  0
    0.6336   -1.5542    0.2645 C   0  0  0  0  0  0  0  0  0  0  0  0
    1.8703   -0.7014    0.0470 C   0  0  0  0  0  0  0  0  0  0  0  0
    1.6894    0.7526    0.4428 C   0  0  0  0  0  0  0  0  0  0  0  0
    0.6896    1.4492   -0.4821 C   0  0  0  0  0  0  0  0  0  0  0  0
   -0.6685    1.2293    0.0412 N   0  0  0  0  0  0  0  0  0  0  0  0
   -2.3629   -0.1407    0.3789 O   0  0  0  0  0  0  0  0  0  0  0  0
   -1.1746   -1.9625   -0.8381 H   0  0  0  0  0  0  0  0  0  0  0  0
   -0.0699   -0.8104   -1.6339 H   0  0  0  0  0  0  0  0  0  0  0  0
    0.2981   -1.4436    1.2956 H   0  0  0  0  0  0  0  0  0  0  0  0
    0.8811   -2.5994    0.0785 H   0  0  0  0  0  0  0  0  0  0  0  0
    2.6896   -1.1215    0.6304 H   0  0  0  0  0  0  0  0  0  0  0  0
    2.1410   -0.7437   -1.0080 H   0  0  0  0  0  0  0  0  0  0  0  0
    1.3234    0.8019    1.4684 H   0  0  0  0  0  0  0  0  0  0  0  0
    2.6505    1.2631    0.3812 H   0  0  0  0  0  0  0  0  0  0  0  0
    0.9016    2.5180   -0.5113 H   0  0  0  0  0  0  0  0  0  0  0  0
    0.7670    1.0311   -1.4857 H   0  0  0  0  0  0  0  0  0  0  0  0
   -1.1513    1.9633    0.4522 H   0  0  0  0  0  0  0  0  0  0  0  0
  1  2  1  0  0  0  0
  2  3  1  0  0  0  0
  3  4  1  0  0  0  0
  4  5  1  0  0  0  0
  5  6  1  0  0  0  0
  6  7  1  0  0  0  0
  1  7  1  0  0  0  0
  1  8  2  0  0  0  0
  2  9  1  0  0  0  0
  2 10  1  0  0  0  0
  3 11  1  0  0  0  0
  3 12  1  0  0  0  0
  4 13  1  0  0  0  0
  4 14  1  0  0  0  0
  5 15  1  0  0  0  0
  5 16  1  0  0  0  0
  6 17  1  0  0  0  0
  6 18  1  0  0  0  0
  7 19  1  0  0  0  0
M  END
$$$$
