C8H16
APtclcactv12151716353D 0   0.00000     0.00000
 
 24 23  0  0  0  0  0  0  0  0999 V2000
   -1.9709   -0.5596    0.2217 C   0  0  0  0  0  0  0  0  0  0  0  0
   -0.7342    0.3399    0.1732 C   0  0  0  0  0  0  0  0  0  0  0  0
    0.5226   -0.5263    0.0669 C   0  0  0  0  0  0  0  0  0  0  0  0
    1.7593    0.3732    0.0184 C   0  0  0  0  0  0  0  0  0  0  0  0
    3.0160   -0.4930   -0.0879 C   0  0  0  0  0  0  0  0  0  0  0  0
    4.2527    0.4065   -0.1364 C   0  0  0  0  0  0  0  0  0  0  0  0
   -3.2087    0.2935    0.3264 C   0  0  0  0  0  0  0  0  0  0  0  0
   -4.1736    0.1580   -0.5492 C   0  0  0  0  0  0  0  0  0  0  0  0
   -5.0607    0.7694   -0.4742 H   0  0  0  0  0  0  0  0  0  0  0  0
   -4.0820   -0.5651   -1.3461 H   0  0  0  0  0  0  0  0  0  0  0  0
   -3.3004    1.0167    1.1233 H   0  0  0  0  0  0  0  0  0  0  0  0
   -2.0193   -1.1601   -0.6866 H   0  0  0  0  0  0  0  0  0  0  0  0
   -1.9083   -1.2169    1.0890 H   0  0  0  0  0  0  0  0  0  0  0  0
   -0.7968    0.9972   -0.6940 H   0  0  0  0  0  0  0  0  0  0  0  0
   -0.6858    0.9404    1.0816 H   0  0  0  0  0  0  0  0  0  0  0  0
    0.5852   -1.1836    0.9342 H   0  0  0  0  0  0  0  0  0  0  0  0
    0.4742   -1.1268   -0.8414 H   0  0  0  0  0  0  0  0  0  0  0  0
    1.6967    1.0305   -0.8488 H   0  0  0  0  0  0  0  0  0  0  0  0
    1.8077    0.9737    0.9268 H   0  0  0  0  0  0  0  0  0  0  0  0
    3.0786   -1.1503    0.7794 H   0  0  0  0  0  0  0  0  0  0  0  0
    2.9676   -1.0935   -0.9962 H   0  0  0  0  0  0  0  0  0  0  0  0
    5.1481   -0.2106   -0.2121 H   0  0  0  0  0  0  0  0  0  0  0  0
    4.1901    1.0639   -1.0036 H   0  0  0  0  0  0  0  0  0  0  0  0
    4.3011    1.0070    0.7720 H   0  0  0  0  0  0  0  0  0  0  0  0
  7  8  2  0  0  0  0
  1  7  1  0  0  0  0
  1  2  1  0  0  0  0
  2  3  1  0  0  0  0
  3  4  1  0  0  0  0
  4  5  1  0  0  0  0
  5  6  1  0  0  0  0
  8  9  1  0  0  0  0
  8 10  1  0  0  0  0
  7 11  1  0  0  0  0
  1 12  1  0  0  0  0
  1 13  1  0  0  0  0
  2 14  1  0  0  0  0
  2 15  1  0  0  0  0
  3 16  1  0  0  0  0
  3 17  1  0  0  0  0
  4 18  1  0  0  0  0
  4 19  1  0  0  0  0
  5 20  1  0  0  0  0
  5 21  1  0  0  0  0
  6 22  1  0  0  0  0
  6 23  1  0  0  0  0
  6 24  1  0  0  0  0
M  END
$$$$
