C8H16NO
APtclcactv12151716383D 0   0.00000     0.00000
 
 26 25  0  0  0  0  0  0  0  0999 V2000
    3.3932    0.0227   -0.0014 C   0  0  0  0  0  0  0  0  0  0  0  0
    2.1027   -0.7555   -0.0018 C   0  0  0  0  0  0  0  0  0  0  0  0
    0.9210    0.2165   -0.0006 C   0  0  0  0  0  0  0  0  0  0  0  0
   -0.3892   -0.5736   -0.0010 C   0  0  0  0  0  0  0  0  0  0  0  0
   -1.5708    0.3983    0.0002 C   0  0  0  0  0  0  0  0  0  0  0  0
   -2.8810   -0.3918   -0.0002 C   0  0  0  0  0  0  0  0  0  0  0  0
   -4.0627    0.5802    0.0010 C   0  0  0  0  0  0  0  0  0  0  0  0
   -5.3729   -0.2099    0.0006 C   0  0  0  0  0  0  0  0  0  0  0  0
    3.3701    1.2353   -0.0003 O   0  0  0  0  0  0  0  0  0  0  0  0
    4.5730   -0.6288    0.0033 N   0  5  0  0  0  0  0  0  0  0  0  0
    5.4037   -0.1279    0.0035 H   0  0  0  0  0  0  0  0  0  0  0  0
    2.0566   -1.3823   -0.8923 H   0  0  0  0  0  0  0  0  0  0  0  0
    2.0571   -1.3839    0.8876 H   0  0  0  0  0  0  0  0  0  0  0  0
    0.9671    0.8433    0.8899 H   0  0  0  0  0  0  0  0  0  0  0  0
    0.9666    0.8449   -0.8901 H   0  0  0  0  0  0  0  0  0  0  0  0
   -0.4352   -1.2005   -0.8915 H   0  0  0  0  0  0  0  0  0  0  0  0
   -0.4348   -1.2021    0.8884 H   0  0  0  0  0  0  0  0  0  0  0  0
   -1.5248    1.0252    0.8907 H   0  0  0  0  0  0  0  0  0  0  0  0
   -1.5252    1.0268   -0.8893 H   0  0  0  0  0  0  0  0  0  0  0  0
   -2.9271   -1.0186   -0.8908 H   0  0  0  0  0  0  0  0  0  0  0  0
   -2.9266   -1.0202    0.8892 H   0  0  0  0  0  0  0  0  0  0  0  0
   -4.0166    1.2070    0.8915 H   0  0  0  0  0  0  0  0  0  0  0  0
   -4.0171    1.2086   -0.8885 H   0  0  0  0  0  0  0  0  0  0  0  0
   -6.2147    0.4825    0.0014 H   0  0  0  0  0  0  0  0  0  0  0  0
   -5.4189   -0.8367   -0.8900 H   0  0  0  0  0  0  0  0  0  0  0  0
   -5.4185   -0.8384    0.8900 H   0  0  0  0  0  0  0  0  0  0  0  0
  1  2  1  0  0  0  0
  2  3  1  0  0  0  0
  3  4  1  0  0  0  0
  4  5  1  0  0  0  0
  5  6  1  0  0  0  0
  6  7  1  0  0  0  0
  7  8  1  0  0  0  0
  1  9  2  0  0  0  0
  1 10  1  0  0  0  0
 10 11  1  0  0  0  0
  2 12  1  0  0  0  0
  2 13  1  0  0  0  0
  3 14  1  0  0  0  0
  3 15  1  0  0  0  0
  4 16  1  0  0  0  0
  4 17  1  0  0  0  0
  5 18  1  0  0  0  0
  5 19  1  0  0  0  0
  6 20  1  0  0  0  0
  6 21  1  0  0  0  0
  7 22  1  0  0  0  0
  7 23  1  0  0  0  0
  8 24  1  0  0  0  0
  8 25  1  0  0  0  0
  8 26  1  0  0  0  0
M  CHG  1  10  -1
M  END
$$$$
