C18H27NO3
APtclcactv12211717183D 0   0.00000     0.00000
 
 49 49  0  0  0  0  0  0  0  0999 V2000
    4.3996    0.6390    0.0415 C   0  0  0  0  0  0  0  0  0  0  0  0
    4.0974   -1.5772    0.9014 C   0  0  0  0  0  0  0  0  0  0  0  0
    5.2592   -1.9852    0.2729 C   0  0  0  0  0  0  0  0  0  0  0  0
    2.4016    0.1716    1.4735 C   0  0  0  0  0  0  0  0  0  0  0  0
   -1.1504    0.1033    0.0477 C   0  0  0  0  0  0  0  0  0  0  0  0
   -2.4367    0.5495    0.7457 C   0  0  0  0  0  0  0  0  0  0  0  0
   -3.6251    0.3464   -0.1963 C   0  0  0  0  0  0  0  0  0  0  0  0
   -4.9113    0.7926    0.5018 C   0  0  0  0  0  0  0  0  0  0  0  0
    5.7814    2.4627   -1.3996 C   0  0  0  0  0  0  0  0  0  0  0  0
   -8.4649   -1.8164   -1.2401 C   0  0  0  0  0  0  0  0  0  0  0  0
   -9.5469    0.2383   -0.3181 C   0  0  0  0  0  0  0  0  0  0  0  0
    1.4054   -0.3867   -0.3165 H   0  0  0  0  0  0  0  0  0  0  0  0
    7.9353   -1.3807   -0.5525 H   0  0  0  0  0  0  0  0  0  0  0  0
    3.6686   -0.2679    0.7859 C   0  0  0  0  0  0  0  0  0  0  0  0
    5.5649    0.2366   -0.5910 C   0  0  0  0  0  0  0  0  0  0  0  0
    5.9966   -1.0812   -0.4748 C   0  0  0  0  0  0  0  0  0  0  0  0
   -0.1570    0.7582    2.0858 O   0  0  0  0  0  0  0  0  0  0  0  0
    7.1399   -1.4808   -1.0933 O   0  0  0  0  0  0  0  0  0  0  0  0
    0.0201    0.3034    0.9755 C   0  0  0  0  0  0  0  0  0  0  0  0
    6.2850    1.1275   -1.3240 O   0  0  0  0  0  0  0  0  0  0  0  0
   -8.2799   -0.3223   -0.9673 C   0  0  0  0  0  0  0  0  0  0  0  0
   -6.0818    0.5925   -0.4260 C   0  0  0  0  0  0  0  0  0  0  0  0
   -7.1094   -0.1222   -0.0394 C   0  0  0  0  0  0  0  0  0  0  0  0
    1.2637   -0.0230    0.5715 N   0  0  0  0  0  0  0  0  0  0  0  0
    4.0600    1.6601   -0.0508 H   0  0  0  0  0  0  0  0  0  0  0  0
    3.5236   -2.2828    1.4838 H   0  0  0  0  0  0  0  0  0  0  0  0
    2.2545   -0.4202    2.3769 H   0  0  0  0  0  0  0  0  0  0  0  0
    2.4791    1.2260    1.7385 H   0  0  0  0  0  0  0  0  0  0  0  0
    5.5922   -3.0084    0.3650 H   0  0  0  0  0  0  0  0  0  0  0  0
    4.7873    2.4513   -1.8465 H   0  0  0  0  0  0  0  0  0  0  0  0
    5.7243    2.8867   -0.3971 H   0  0  0  0  0  0  0  0  0  0  0  0
    6.4486    3.0684   -2.0128 H   0  0  0  0  0  0  0  0  0  0  0  0
   -1.2279   -0.9512   -0.2173 H   0  0  0  0  0  0  0  0  0  0  0  0
   -1.0033    0.6951   -0.8558 H   0  0  0  0  0  0  0  0  0  0  0  0
   -2.5839   -0.0423    1.6492 H   0  0  0  0  0  0  0  0  0  0  0  0
   -2.3592    1.6040    1.0107 H   0  0  0  0  0  0  0  0  0  0  0  0
   -3.4779    0.9382   -1.0997 H   0  0  0  0  0  0  0  0  0  0  0  0
   -3.7025   -0.7081   -0.4612 H   0  0  0  0  0  0  0  0  0  0  0  0
   -5.0585    0.2008    1.4053 H   0  0  0  0  0  0  0  0  0  0  0  0
   -4.8339    1.8471    0.7668 H   0  0  0  0  0  0  0  0  0  0  0  0
   -6.0735    1.0382   -1.4097 H   0  0  0  0  0  0  0  0  0  0  0  0
   -7.1177   -0.5679    0.9443 H   0  0  0  0  0  0  0  0  0  0  0  0
   -8.0922    0.1980   -1.9065 H   0  0  0  0  0  0  0  0  0  0  0  0
   -9.3115   -1.9611   -1.9112 H   0  0  0  0  0  0  0  0  0  0  0  0
   -7.5622   -2.2157   -1.7025 H   0  0  0  0  0  0  0  0  0  0  0  0
   -8.6526   -2.3367   -0.3008 H   0  0  0  0  0  0  0  0  0  0  0  0
   -9.4152    1.3027   -0.1238 H   0  0  0  0  0  0  0  0  0  0  0  0
  -10.3936    0.0935   -0.9892 H   0  0  0  0  0  0  0  0  0  0  0  0
   -9.7347   -0.2820    0.6211 H   0  0  0  0  0  0  0  0  0  0  0  0
  1 14  2  0  0  0  0
  2 14  1  0  0  0  0
  4 14  1  0  0  0  0
  1 15  1  0  0  0  0
  2  3  2  0  0  0  0
  4 24  1  0  0  0  0
 15 16  2  0  0  0  0
 15 20  1  0  0  0  0
 19 24  1  0  0  0  0
 16 18  1  0  0  0  0
  9 20  1  0  0  0  0
  5 19  1  0  0  0  0
 17 19  2  0  0  0  0
  5  6  1  0  0  0  0
  6  7  1  0  0  0  0
  7  8  1  0  0  0  0
  8 22  1  0  0  0  0
 22 23  2  0  0  0  0
 21 23  1  0  0  0  0
 10 21  1  0  0  0  0
 11 21  1  0  0  0  0
  3 16  1  0  0  0  0
  1 25  1  0  0  0  0
  2 26  1  0  0  0  0
  4 27  1  0  0  0  0
  4 28  1  0  0  0  0
  3 29  1  0  0  0  0
 12 24  1  0  0  0  0
 13 18  1  0  0  0  0
  9 30  1  0  0  0  0
  9 31  1  0  0  0  0
  9 32  1  0  0  0  0
  5 33  1  0  0  0  0
  5 34  1  0  0  0  0
  6 35  1  0  0  0  0
  6 36  1  0  0  0  0
  7 37  1  0  0  0  0
  7 38  1  0  0  0  0
  8 39  1  0  0  0  0
  8 40  1  0  0  0  0
 22 41  1  0  0  0  0
 23 42  1  0  0  0  0
 21 43  1  0  0  0  0
 10 44  1  0  0  0  0
 10 45  1  0  0  0  0
 10 46  1  0  0  0  0
 11 47  1  0  0  0  0
 11 48  1  0  0  0  0
 11 49  1  0  0  0  0
M  END
$$$$
