C9H15NO3S
APtclcactv12151716503D 0   0.00000     0.00000
 
 29 29  0  0  1  0  0  0  0  0999 V2000
    2.1227    0.1170   -0.5881 C   0  0  1  0  0  0  0  0  0  0  0  0
   -1.7093    0.3089   -0.0608 C   0  0  1  0  0  0  0  0  0  0  0  0
   -2.7831   -0.7361   -0.3706 C   0  0  0  0  0  0  0  0  0  0  0  0
   -1.7255    0.6286    1.4353 C   0  0  0  0  0  0  0  0  0  0  0  0
   -0.2601   -1.3445   -0.9186 O   0  0  0  0  0  0  0  0  0  0  0  0
    1.7211   -1.5781    0.9984 O   0  0  0  0  0  0  0  0  0  0  0  0
    0.7746    1.8815    0.3030 C   0  0  0  0  0  0  0  0  0  0  0  0
    3.0441    1.3029   -0.2328 C   0  0  0  0  0  0  0  0  0  0  0  0
    2.0747    2.5143   -0.2530 C   0  0  0  0  0  0  0  0  0  0  0  0
    3.7307   -1.6330    0.0808 O   0  0  0  0  0  0  0  0  0  0  0  0
   -0.3562   -0.2324   -0.4442 C   0  0  0  0  0  0  0  0  0  0  0  0
    2.5098   -1.0934    0.2219 C   0  0  0  0  0  0  0  0  0  0  0  0
    3.9330   -2.4086    0.6217 H   0  0  0  0  0  0  0  0  0  0  0  0
    0.7472    0.5193   -0.2600 N   0  0  0  0  0  0  0  0  0  0  0  0
   -4.4233   -0.0316   -0.0481 S   0  0  0  0  0  0  0  0  0  0  0  0
    2.1998   -0.1064   -1.6522 H   0  0  0  0  0  0  0  0  0  0  0  0
    0.8077    1.8415    1.3917 H   0  0  0  0  0  0  0  0  0  0  0  0
   -0.0953    2.4474   -0.0304 H   0  0  0  0  0  0  0  0  0  0  0  0
    3.4765    1.1716    0.7591 H   0  0  0  0  0  0  0  0  0  0  0  0
    3.8259    1.4221   -0.9828 H   0  0  0  0  0  0  0  0  0  0  0  0
   -1.9116    1.2170   -0.6286 H   0  0  0  0  0  0  0  0  0  0  0  0
    1.9277    2.8801   -1.2692 H   0  0  0  0  0  0  0  0  0  0  0  0
    2.4315    3.3111    0.3996 H   0  0  0  0  0  0  0  0  0  0  0  0
   -2.7132   -1.0294   -1.4181 H   0  0  0  0  0  0  0  0  0  0  0  0
   -2.6324   -1.6106    0.2623 H   0  0  0  0  0  0  0  0  0  0  0  0
   -1.5232   -0.2796    2.0032 H   0  0  0  0  0  0  0  0  0  0  0  0
   -0.9605    1.3730    1.6561 H   0  0  0  0  0  0  0  0  0  0  0  0
   -2.7042    1.0201    1.7127 H   0  0  0  0  0  0  0  0  0  0  0  0
   -5.2535   -1.0434   -0.3582 H   0  0  0  0  0  0  0  0  0  0  0  0
  1 14  1  0  0  0  0
 11 14  1  0  0  0  0
  7 14  1  0  0  0  0
  1  8  1  0  0  0  0
  1 12  1  0  0  0  0
  2 11  1  0  0  0  0
  5 11  2  0  0  0  0
  7  9  1  0  0  0  0
 10 12  1  0  0  0  0
  6 12  2  0  0  0  0
  2  3  1  0  0  0  0
  2  4  1  0  0  0  0
  3 15  1  0  0  0  0
  8  9  1  0  0  0  0
  1 16  1  0  0  0  0
  7 17  1  0  0  0  0
  7 18  1  0  0  0  0
  8 19  1  0  0  0  0
  8 20  1  0  0  0  0
  2 21  1  0  0  0  0
  9 22  1  0  0  0  0
  9 23  1  0  0  0  0
 10 13  1  0  0  0  0
  3 24  1  0  0  0  0
  3 25  1  0  0  0  0
  4 26  1  0  0  0  0
  4 27  1  0  0  0  0
  4 28  1  0  0  0  0
 15 29  1  0  0  0  0
M  END
$$$$
