C12H15NO3
APtclcactv12111705003D 0   0.00000     0.00000
 
 31 32  0  0  0  0  0  0  0  0999 V2000
   -0.3770    2.4816   -0.1420 C   0  0  0  0  0  0  0  0  0  0  0  0
    0.8031    3.0278    0.3265 C   0  0  0  0  0  0  0  0  0  0  0  0
    1.9290    2.2326    0.4471 C   0  0  0  0  0  0  0  0  0  0  0  0
   -4.2827   -1.4520    0.4779 C   0  0  0  0  0  0  0  0  0  0  0  0
    2.7472   -2.5303   -0.8534 C   0  0  0  0  0  0  0  0  0  0  0  0
    1.6794   -2.0312    1.3728 C   0  0  0  0  0  0  0  0  0  0  0  0
   -3.7197   -0.6822   -1.4191 H   0  0  0  0  0  0  0  0  0  0  0  0
   -0.4360    1.1443   -0.4933 C   0  0  0  0  0  0  0  0  0  0  0  0
   -2.0330   -0.1026    1.1020 O   0  0  0  0  0  0  0  0  0  0  0  0
    2.9141   -0.2031    0.1304 C   0  0  0  0  0  0  0  0  0  0  0  0
   -2.3540   -0.0673   -0.0695 C   0  0  0  0  0  0  0  0  0  0  0  0
   -1.6010    0.6144   -0.9536 O   0  0  0  0  0  0  0  0  0  0  0  0
    0.6984    0.3377   -0.3768 C   0  0  0  0  0  0  0  0  0  0  0  0
    1.8736    0.8998    0.1010 C   0  0  0  0  0  0  0  0  0  0  0  0
    0.8678   -0.9799   -0.6774 O   0  0  0  0  0  0  0  0  0  0  0  0
   -3.4635   -0.7104   -0.4839 N   0  0  0  0  0  0  0  0  0  0  0  0
    2.0396   -1.4719   -0.0050 C   0  0  0  0  0  0  0  0  0  0  0  0
   -1.2580    3.1000   -0.2301 H   0  0  0  0  0  0  0  0  0  0  0  0
   -3.6813   -2.2352    0.9396 H   0  0  0  0  0  0  0  0  0  0  0  0
   -4.6452   -0.7708    1.2478 H   0  0  0  0  0  0  0  0  0  0  0  0
   -5.1310   -1.9018   -0.0380 H   0  0  0  0  0  0  0  0  0  0  0  0
    0.8463    4.0724    0.5974 H   0  0  0  0  0  0  0  0  0  0  0  0
    3.6018   -0.1123   -0.7104 H   0  0  0  0  0  0  0  0  0  0  0  0
    3.4556   -0.2025    1.0764 H   0  0  0  0  0  0  0  0  0  0  0  0
    2.8524    2.6570    0.8126 H   0  0  0  0  0  0  0  0  0  0  0  0
    3.0230   -2.0996   -1.8160 H   0  0  0  0  0  0  0  0  0  0  0  0
    3.6449   -2.8696   -0.3366 H   0  0  0  0  0  0  0  0  0  0  0  0
    2.0779   -3.3758   -1.0121 H   0  0  0  0  0  0  0  0  0  0  0  0
    0.9896   -2.8672    1.2565 H   0  0  0  0  0  0  0  0  0  0  0  0
    2.5847   -2.3741    1.8737 H   0  0  0  0  0  0  0  0  0  0  0  0
    1.2072   -1.2509    1.9696 H   0  0  0  0  0  0  0  0  0  0  0  0
 11 12  1  0  0  0  0
 11 16  1  0  0  0  0
  9 11  2  0  0  0  0
  8 12  1  0  0  0  0
  8 13  2  0  0  0  0
  1  8  1  0  0  0  0
  4 16  1  0  0  0  0
 13 14  1  0  0  0  0
 13 15  1  0  0  0  0
  1  2  2  0  0  0  0
 10 14  1  0  0  0  0
  3 14  2  0  0  0  0
 15 17  1  0  0  0  0
  2  3  1  0  0  0  0
 10 17  1  0  0  0  0
  5 17  1  0  0  0  0
  6 17  1  0  0  0  0
  7 16  1  0  0  0  0
  1 18  1  0  0  0  0
  4 19  1  0  0  0  0
  4 20  1  0  0  0  0
  4 21  1  0  0  0  0
  2 22  1  0  0  0  0
 10 23  1  0  0  0  0
 10 24  1  0  0  0  0
  3 25  1  0  0  0  0
  5 26  1  0  0  0  0
  5 27  1  0  0  0  0
  5 28  1  0  0  0  0
  6 29  1  0  0  0  0
  6 30  1  0  0  0  0
  6 31  1  0  0  0  0
M  END
$$$$
