C11H13N5O2
APtclcactv12211717343D 0   0.00000     0.00000
 
 31 33  0  0  0  0  0  0  0  0999 V2000
    0.1091    1.9250    0.0482 C   0  0  0  0  0  0  0  0  0  0  0  0
   -4.4026   -1.0150    0.5407 C   0  0  0  0  0  0  0  0  0  0  0  0
    0.8982   -2.0442   -0.1909 H   0  0  0  0  0  0  0  0  0  0  0  0
   -6.2600   -1.6830    0.0880 H   0  0  0  0  0  0  0  0  0  0  0  0
    2.5941   -3.6289   -0.2226 H   0  0  0  0  0  0  0  0  0  0  0  0
    4.2034   -3.1578   -0.1171 H   0  0  0  0  0  0  0  0  0  0  0  0
    4.3446    1.4643    0.2100 O   0  0  0  0  0  0  0  0  0  0  0  0
   -2.2695    0.2253    1.0812 C   0  0  0  0  0  0  0  0  0  0  0  0
   -5.7405   -0.8679    0.0605 O   0  0  0  0  0  0  0  0  0  0  0  0
   -1.4017   -0.0858   -0.1603 C   0  0  0  0  0  0  0  0  0  0  0  0
   -3.6780    0.3296    0.4514 C   0  0  0  0  0  0  0  0  0  0  0  0
    3.4761    0.6117    0.1117 C   0  0  0  0  0  0  0  0  0  0  0  0
    2.8725   -1.6182   -0.0713 C   0  0  0  0  0  0  0  0  0  0  0  0
    1.1159   -0.0267   -0.0407 C   0  0  0  0  0  0  0  0  0  0  0  0
    2.0593    0.9872    0.0725 C   0  0  0  0  0  0  0  0  0  0  0  0
    3.2611   -2.9290   -0.1441 N   0  0  0  0  0  0  0  0  0  0  0  0
   -2.1854    0.4708   -1.3261 C   0  0  0  0  0  0  0  0  0  0  0  0
   -3.4268    0.6973   -0.9925 C   0  0  0  0  0  0  0  0  0  0  0  0
    1.3876    2.1609    0.1230 N   0  0  0  0  0  0  0  0  0  0  0  0
    1.5461   -1.3268   -0.1114 N   0  0  0  0  0  0  0  0  0  0  0  0
    3.7979   -0.6891    0.0368 N   0  0  0  0  0  0  0  0  0  0  0  0
   -0.1017    0.5813   -0.0543 N   0  0  0  0  0  0  0  0  0  0  0  0
   -1.2676   -1.1619   -0.2698 H   0  0  0  0  0  0  0  0  0  0  0  0
   -2.2237   -0.5887    1.8046 H   0  0  0  0  0  0  0  0  0  0  0  0
   -1.9744    1.1699    1.5382 H   0  0  0  0  0  0  0  0  0  0  0  0
   -4.2584    1.1083    0.9461 H   0  0  0  0  0  0  0  0  0  0  0  0
   -1.7726    0.6571   -2.3065 H   0  0  0  0  0  0  0  0  0  0  0  0
   -4.1762    1.0950   -1.6609 H   0  0  0  0  0  0  0  0  0  0  0  0
   -4.4236   -1.3482    1.5783 H   0  0  0  0  0  0  0  0  0  0  0  0
   -3.8774   -1.7518   -0.0670 H   0  0  0  0  0  0  0  0  0  0  0  0
   -0.6655    2.6773    0.0690 H   0  0  0  0  0  0  0  0  0  0  0  0
  2  9  1  0  0  0  0
  4  9  1  0  0  0  0
  7 12  2  0  0  0  0
 10 22  1  0  0  0  0
 14 22  1  0  0  0  0
  1 22  1  0  0  0  0
 14 20  1  0  0  0  0
 13 20  1  0  0  0  0
  3 20  1  0  0  0  0
  1 19  2  0  0  0  0
 15 19  1  0  0  0  0
 12 21  1  0  0  0  0
 13 21  2  0  0  0  0
 13 16  1  0  0  0  0
  5 16  1  0  0  0  0
  6 16  1  0  0  0  0
  8 10  1  0  0  0  0
 10 17  1  0  0  0  0
 10 23  1  0  0  0  0
  8 11  1  0  0  0  0
  8 24  1  0  0  0  0
  8 25  1  0  0  0  0
 11 18  1  0  0  0  0
  2 11  1  0  0  0  0
 11 26  1  0  0  0  0
 17 18  2  0  0  0  0
 17 27  1  0  0  0  0
 18 28  1  0  0  0  0
  2 29  1  0  0  0  0
  2 30  1  0  0  0  0
 14 15  2  0  0  0  0
  1 31  1  0  0  0  0
 12 15  1  0  0  0  0
M  END
$$$$
