C11H17N3O3S
APtclcactv12111704483D 0   0.00000     0.00000
 
 35 35  0  0  0  0  0  0  0  0999 V2000
    2.8150    0.0763    1.1372 C   0  0  0  0  0  0  0  0  0  0  0  0
    2.0229    0.5926   -1.0655 C   0  0  0  0  0  0  0  0  0  0  0  0
    3.4881    1.2813    1.1815 C   0  0  0  0  0  0  0  0  0  0  0  0
    2.6936    1.7992   -1.0277 C   0  0  0  0  0  0  0  0  0  0  0  0
   -3.3138    0.3615   -0.2979 C   0  0  0  0  0  0  0  0  0  0  0  0
   -4.6353    0.4320    0.4699 C   0  0  0  0  0  0  0  0  0  0  0  0
   -5.6075    1.3518   -0.2715 C   0  0  0  0  0  0  0  0  0  0  0  0
   -6.9290    1.4223    0.4962 C   0  0  0  0  0  0  0  0  0  0  0  0
   -0.5640   -1.9727    1.3966 H   0  0  0  0  0  0  0  0  0  0  0  0
   -2.6557   -0.9484    1.2381 H   0  0  0  0  0  0  0  0  0  0  0  0
    4.6221    3.6105    0.9258 H   0  0  0  0  0  0  0  0  0  0  0  0
    4.0672    3.9723   -0.6182 H   0  0  0  0  0  0  0  0  0  0  0  0
    2.0833   -0.2679    0.0154 C   0  0  0  0  0  0  0  0  0  0  0  0
    3.4296    2.1481    0.0976 C   0  0  0  0  0  0  0  0  0  0  0  0
    1.0586   -2.1257   -1.4118 O   0  0  0  0  0  0  0  0  0  0  0  0
    1.8849   -2.6643    0.8848 O   0  0  0  0  0  0  0  0  0  0  0  0
   -0.8058   -0.1955   -1.1181 O   0  0  0  0  0  0  0  0  0  0  0  0
   -1.1477   -0.7334   -0.0826 C   0  0  0  0  0  0  0  0  0  0  0  0
    4.1088    3.3679    0.1393 N   0  0  0  0  0  0  0  0  0  0  0  0
   -0.2913   -1.5436    0.5705 N   0  0  0  0  0  0  0  0  0  0  0  0
   -2.3830   -0.5193    0.4121 N   0  0  0  0  0  0  0  0  0  0  0  0
    1.2265   -1.8067   -0.0373 S   0  0  0  0  0  0  0  0  0  0  0  0
    2.8637   -0.6001    1.9778 H   0  0  0  0  0  0  0  0  0  0  0  0
    1.4506    0.3207   -1.9401 H   0  0  0  0  0  0  0  0  0  0  0  0
    4.0591    1.5497    2.0581 H   0  0  0  0  0  0  0  0  0  0  0  0
    2.6461    2.4708   -1.8722 H   0  0  0  0  0  0  0  0  0  0  0  0
   -3.4952   -0.0321   -1.2980 H   0  0  0  0  0  0  0  0  0  0  0  0
   -2.8835    1.3601   -0.3729 H   0  0  0  0  0  0  0  0  0  0  0  0
   -5.0657   -0.5667    0.5449 H   0  0  0  0  0  0  0  0  0  0  0  0
   -4.4539    0.8256    1.4701 H   0  0  0  0  0  0  0  0  0  0  0  0
   -5.1771    2.3505   -0.3466 H   0  0  0  0  0  0  0  0  0  0  0  0
   -5.7889    0.9583   -1.2717 H   0  0  0  0  0  0  0  0  0  0  0  0
   -7.3593    0.4237    0.5713 H   0  0  0  0  0  0  0  0  0  0  0  0
   -6.7476    1.8159    1.4964 H   0  0  0  0  0  0  0  0  0  0  0  0
   -7.6216    2.0776   -0.0320 H   0  0  0  0  0  0  0  0  0  0  0  0
 13 22  1  0  0  0  0
  1 13  1  0  0  0  0
  2 13  2  0  0  0  0
 20 22  1  0  0  0  0
 15 22  2  0  0  0  0
 16 22  2  0  0  0  0
  1  3  2  0  0  0  0
  2  4  1  0  0  0  0
 18 20  1  0  0  0  0
  3 14  1  0  0  0  0
 18 21  1  0  0  0  0
 17 18  2  0  0  0  0
 14 19  1  0  0  0  0
  5 21  1  0  0  0  0
  5  6  1  0  0  0  0
  6  7  1  0  0  0  0
  7  8  1  0  0  0  0
  4 14  2  0  0  0  0
  1 23  1  0  0  0  0
  2 24  1  0  0  0  0
  9 20  1  0  0  0  0
  3 25  1  0  0  0  0
  4 26  1  0  0  0  0
 10 21  1  0  0  0  0
 11 19  1  0  0  0  0
 12 19  1  0  0  0  0
  5 27  1  0  0  0  0
  5 28  1  0  0  0  0
  6 29  1  0  0  0  0
  6 30  1  0  0  0  0
  7 31  1  0  0  0  0
  7 32  1  0  0  0  0
  8 33  1  0  0  0  0
  8 34  1  0  0  0  0
  8 35  1  0  0  0  0
M  END
$$$$
