C13H12N2O
APtclcactv12071713253D 0   0.00000     0.00000
 
 28 29  0  0  0  0  0  0  0  0999 V2000
    2.4332    0.7349    0.6925 C   0  0  0  0  0  0  0  0  0  0  0  0
   -2.5067    0.6811   -0.7635 C   0  0  0  0  0  0  0  0  0  0  0  0
    3.5228   -1.0126   -0.5470 C   0  0  0  0  0  0  0  0  0  0  0  0
   -3.4490   -0.9884    0.6864 C   0  0  0  0  0  0  0  0  0  0  0  0
    3.6259    1.4282    0.7569 C   0  0  0  0  0  0  0  0  0  0  0  0
   -3.7044    1.3686   -0.7446 C   0  0  0  0  0  0  0  0  0  0  0  0
    4.7124   -0.3143   -0.4791 C   0  0  0  0  0  0  0  0  0  0  0  0
   -4.6440   -0.2962    0.7012 C   0  0  0  0  0  0  0  0  0  0  0  0
    4.7642    0.9045    0.1719 C   0  0  0  0  0  0  0  0  0  0  0  0
   -4.7719    0.8808   -0.0133 C   0  0  0  0  0  0  0  0  0  0  0  0
    1.1749   -2.1646   -0.0175 H   0  0  0  0  0  0  0  0  0  0  0  0
   -1.1623   -2.1702   -0.0473 H   0  0  0  0  0  0  0  0  0  0  0  0
    2.3779   -0.4894    0.0395 C   0  0  0  0  0  0  0  0  0  0  0  0
   -2.3751   -0.5012   -0.0470 C   0  0  0  0  0  0  0  0  0  0  0  0
    0.0020    0.6850   -0.2111 O   0  0  0  0  0  0  0  0  0  0  0  0
    0.0033   -0.5262   -0.1047 C   0  0  0  0  0  0  0  0  0  0  0  0
    1.1710   -1.1947   -0.0271 N   0  0  0  0  0  0  0  0  0  0  0  0
   -1.1630   -1.2004   -0.0643 N   0  0  0  0  0  0  0  0  0  0  0  0
    1.5455    1.1423    1.1534 H   0  0  0  0  0  0  0  0  0  0  0  0
   -1.6747    1.0602   -1.3384 H   0  0  0  0  0  0  0  0  0  0  0  0
    3.4829   -1.9644   -1.0559 H   0  0  0  0  0  0  0  0  0  0  0  0
   -3.3496   -1.9074    1.2450 H   0  0  0  0  0  0  0  0  0  0  0  0
    3.6695    2.3806    1.2643 H   0  0  0  0  0  0  0  0  0  0  0  0
   -3.8073    2.2883   -1.3013 H   0  0  0  0  0  0  0  0  0  0  0  0
    5.6032   -0.7207   -0.9350 H   0  0  0  0  0  0  0  0  0  0  0  0
   -5.4796   -0.6746    1.2713 H   0  0  0  0  0  0  0  0  0  0  0  0
    5.6956    1.4488    0.2233 H   0  0  0  0  0  0  0  0  0  0  0  0
   -5.7073    1.4204    0.0001 H   0  0  0  0  0  0  0  0  0  0  0  0
 15 16  2  0  0  0  0
 16 17  1  0  0  0  0
 13 17  1  0  0  0  0
 16 18  1  0  0  0  0
 14 18  1  0  0  0  0
  1 13  2  0  0  0  0
  3 13  1  0  0  0  0
  2 14  2  0  0  0  0
  4 14  1  0  0  0  0
  1  5  1  0  0  0  0
  2  6  1  0  0  0  0
  3  7  2  0  0  0  0
  4  8  2  0  0  0  0
  5  9  2  0  0  0  0
  6 10  2  0  0  0  0
  7  9  1  0  0  0  0
  8 10  1  0  0  0  0
 11 17  1  0  0  0  0
 12 18  1  0  0  0  0
  1 19  1  0  0  0  0
  2 20  1  0  0  0  0
  3 21  1  0  0  0  0
  4 22  1  0  0  0  0
  5 23  1  0  0  0  0
  6 24  1  0  0  0  0
  7 25  1  0  0  0  0
  8 26  1  0  0  0  0
  9 27  1  0  0  0  0
 10 28  1  0  0  0  0
M  END
$$$$
