C11H16ClO2PS3
APtclcactv12211717353D 0   0.00000     0.00000
 
 34 34  0  0  0  0  0  0  0  0999 V2000
    2.9998   -0.5945    1.4105 C   0  0  0  0  0  0  0  0  0  0  0  0
    2.3092    1.1142   -0.1350 C   0  0  0  0  0  0  0  0  0  0  0  0
    4.2413   -0.6337    0.8073 C   0  0  0  0  0  0  0  0  0  0  0  0
    3.5528    1.0708   -0.7336 C   0  0  0  0  0  0  0  0  0  0  0  0
   -0.4322    1.6014    0.7494 C   0  0  0  0  0  0  0  0  0  0  0  0
   -1.3276   -2.6538    0.0397 C   0  0  0  0  0  0  0  0  0  0  0  0
   -4.0832    1.8422   -0.0241 C   0  0  0  0  0  0  0  0  0  0  0  0
   -1.0212   -3.6200    1.1858 C   0  0  0  0  0  0  0  0  0  0  0  0
   -5.0549    2.4237    1.0049 C   0  0  0  0  0  0  0  0  0  0  0  0
    2.0281    0.2808    0.9408 C   0  0  0  0  0  0  0  0  0  0  0  0
    4.5185    0.1980   -0.2636 C   0  0  0  0  0  0  0  0  0  0  0  0
   -2.0652   -1.5377    0.5420 O   0  0  0  0  0  0  0  0  0  0  0  0
   -3.6696    0.5399    0.3942 O   0  0  0  0  0  0  0  0  0  0  0  0
    6.0809    0.1466   -1.0185 Cl  0  0  0  0  0  0  0  0  0  0  0  0
   -2.5582   -0.3212   -0.3903 P   0  0  0  0  0  0  0  0  0  0  0  0
   -0.9065    0.9206   -0.8637 S   0  0  0  0  0  0  0  0  0  0  0  0
    0.4424    0.3333    1.7074 S   0  0  0  0  0  0  0  0  0  0  0  0
   -3.2943   -1.0014   -1.9613 S   0  0  0  0  0  0  0  0  0  0  0  0
    0.2215    2.4613    0.6030 H   0  0  0  0  0  0  0  0  0  0  0  0
   -1.3263    1.9125    1.2896 H   0  0  0  0  0  0  0  0  0  0  0  0
   -0.3937   -2.3039   -0.4000 H   0  0  0  0  0  0  0  0  0  0  0  0
   -1.9173   -3.1667   -0.7201 H   0  0  0  0  0  0  0  0  0  0  0  0
   -4.5784    1.7726   -0.9926 H   0  0  0  0  0  0  0  0  0  0  0  0
   -3.2114    2.4910   -0.1076 H   0  0  0  0  0  0  0  0  0  0  0  0
   -0.4316   -3.1072    1.9456 H   0  0  0  0  0  0  0  0  0  0  0  0
   -1.9552   -3.9699    1.6255 H   0  0  0  0  0  0  0  0  0  0  0  0
   -0.4587   -4.4714    0.8026 H   0  0  0  0  0  0  0  0  0  0  0  0
   -4.5597    2.4933    1.9734 H   0  0  0  0  0  0  0  0  0  0  0  0
   -5.3704    3.4170    0.6858 H   0  0  0  0  0  0  0  0  0  0  0  0
   -5.9268    1.7749    1.0884 H   0  0  0  0  0  0  0  0  0  0  0  0
    2.7827   -1.2467    2.2435 H   0  0  0  0  0  0  0  0  0  0  0  0
    1.5561    1.7958   -0.5020 H   0  0  0  0  0  0  0  0  0  0  0  0
    4.9970   -1.3137    1.1719 H   0  0  0  0  0  0  0  0  0  0  0  0
    3.7718    1.7181   -1.5700 H   0  0  0  0  0  0  0  0  0  0  0  0
 15 16  1  0  0  0  0
 12 15  1  0  0  0  0
 13 15  1  0  0  0  0
 15 18  2  0  0  0  0
  5 16  1  0  0  0  0
  6 12  1  0  0  0  0
  7 13  1  0  0  0  0
  5 17  1  0  0  0  0
  6  8  1  0  0  0  0
  7  9  1  0  0  0  0
 10 17  1  0  0  0  0
  1 10  1  0  0  0  0
  2 10  2  0  0  0  0
  1  3  2  0  0  0  0
  2  4  1  0  0  0  0
  3 11  1  0  0  0  0
 11 14  1  0  0  0  0
  4 11  2  0  0  0  0
  5 19  1  0  0  0  0
  5 20  1  0  0  0  0
  6 21  1  0  0  0  0
  6 22  1  0  0  0  0
  7 23  1  0  0  0  0
  7 24  1  0  0  0  0
  8 25  1  0  0  0  0
  8 26  1  0  0  0  0
  8 27  1  0  0  0  0
  9 28  1  0  0  0  0
  9 29  1  0  0  0  0
  9 30  1  0  0  0  0
  1 31  1  0  0  0  0
  2 32  1  0  0  0  0
  3 33  1  0  0  0  0
  4 34  1  0  0  0  0
M  END
$$$$
