C9H7NO
APtclcactv12151716423D 0   0.00000     0.00000
 
 18 19  0  0  0  0  0  0  0  0999 V2000
    1.3589   -1.4780   -0.0000 C   0  0  0  0  0  0  0  0  0  0  0  0
    1.8265    1.2694    0.0001 C   0  0  0  0  0  0  0  0  0  0  0  0
    2.6436   -0.9792    0.0001 C   0  0  0  0  0  0  0  0  0  0  0  0
    2.8720    0.3902    0.0002 C   0  0  0  0  0  0  0  0  0  0  0  0
   -1.1777   -2.0299    0.0005 H   0  0  0  0  0  0  0  0  0  0  0  0
   -3.1932   -0.6784    0.0004 O   0  0  0  0  0  0  0  0  0  0  0  0
   -2.0613   -0.2262   -0.0003 C   0  0  0  0  0  0  0  0  0  0  0  0
    0.2783   -0.6018   -0.0001 C   0  0  0  0  0  0  0  0  0  0  0  0
    0.5139    0.7858   -0.0000 C   0  0  0  0  0  0  0  0  0  0  0  0
   -0.6299    1.6997   -0.0001 C   0  0  0  0  0  0  0  0  0  0  0  0
   -1.8795    1.1734   -0.0002 C   0  0  0  0  0  0  0  0  0  0  0  0
   -1.0172   -1.0733    0.0002 N   0  0  0  0  0  0  0  0  0  0  0  0
   -0.4816    2.7695    0.0003 H   0  0  0  0  0  0  0  0  0  0  0  0
   -2.7389    1.8275   -0.0011 H   0  0  0  0  0  0  0  0  0  0  0  0
    1.1917   -2.5449   -0.0045 H   0  0  0  0  0  0  0  0  0  0  0  0
    2.0126    2.3332    0.0005 H   0  0  0  0  0  0  0  0  0  0  0  0
    3.4814   -1.6607    0.0005 H   0  0  0  0  0  0  0  0  0  0  0  0
    3.8854    0.7638   -0.0001 H   0  0  0  0  0  0  0  0  0  0  0  0
  6  7  2  0  0  0  0
  8 12  1  0  0  0  0
  7 12  1  0  0  0  0
  8  9  2  0  0  0  0
  1  8  1  0  0  0  0
  9 10  1  0  0  0  0
  2  9  1  0  0  0  0
  7 11  1  0  0  0  0
 10 11  2  0  0  0  0
  1  3  2  0  0  0  0
  2  4  2  0  0  0  0
  3  4  1  0  0  0  0
  5 12  1  0  0  0  0
 10 13  1  0  0  0  0
 11 14  1  0  0  0  0
  1 15  1  0  0  0  0
  2 16  1  0  0  0  0
  3 17  1  0  0  0  0
  4 18  1  0  0  0  0
M  END
$$$$
