C10H14O
APtclcactv12211717263D 0   0.00000     0.00000
 
 25 25  0  0  0  0  0  0  0  0999 V2000
   -0.0885   -1.1014   -0.0241 C   0  0  0  0  0  0  0  0  0  0  0  0
   -1.4280   -0.7411   -0.0234 C   0  0  0  0  0  0  0  0  0  0  0  0
   -2.3908   -1.7000   -0.0422 O   0  0  0  0  0  0  0  0  0  0  0  0
   -1.7832    0.6001   -0.0030 C   0  0  0  0  0  0  0  0  0  0  0  0
   -3.2376    0.9951   -0.0016 C   0  0  0  0  0  0  0  0  0  0  0  0
   -0.8028    1.5728    0.0166 C   0  0  0  0  0  0  0  0  0  0  0  0
    0.5319    1.2110    0.0158 C   0  0  0  0  0  0  0  0  0  0  0  0
    0.8884   -0.1246   -0.0045 C   0  0  0  0  0  0  0  0  0  0  0  0
    2.3439   -0.5153   -0.0057 C   0  0  0  0  0  0  0  0  0  0  0  0
    3.0278    0.0691   -1.2433 C   0  0  0  0  0  0  0  0  0  0  0  0
    3.0191    0.0288    1.2548 C   0  0  0  0  0  0  0  0  0  0  0  0
    0.1905   -2.1447   -0.0354 H   0  0  0  0  0  0  0  0  0  0  0  0
   -2.6728   -1.9915    0.8357 H   0  0  0  0  0  0  0  0  0  0  0  0
   -3.5918    1.0737    1.0262 H   0  0  0  0  0  0  0  0  0  0  0  0
   -3.3532    1.9573   -0.5004 H   0  0  0  0  0  0  0  0  0  0  0  0
   -3.8197    0.2398   -0.5297 H   0  0  0  0  0  0  0  0  0  0  0  0
   -1.0788    2.6168    0.0321 H   0  0  0  0  0  0  0  0  0  0  0  0
    1.2970    1.9730    0.0311 H   0  0  0  0  0  0  0  0  0  0  0  0
    2.4284   -1.6019   -0.0230 H   0  0  0  0  0  0  0  0  0  0  0  0
    4.0805   -0.2135   -1.2443 H   0  0  0  0  0  0  0  0  0  0  0  0
    2.5467   -0.3185   -2.1414 H   0  0  0  0  0  0  0  0  0  0  0  0
    2.9433    1.1557   -1.2261 H   0  0  0  0  0  0  0  0  0  0  0  0
    2.5319   -0.3875    2.1365 H   0  0  0  0  0  0  0  0  0  0  0  0
    4.0718   -0.2538    1.2539 H   0  0  0  0  0  0  0  0  0  0  0  0
    2.9346    1.1154    1.2720 H   0  0  0  0  0  0  0  0  0  0  0  0
  1  2  2  0  0  0  0
  2  3  1  0  0  0  0
  2  4  1  0  0  0  0
  4  5  1  0  0  0  0
  4  6  2  0  0  0  0
  6  7  1  0  0  0  0
  7  8  2  0  0  0  0
  1  8  1  0  0  0  0
  8  9  1  0  0  0  0
  9 10  1  0  0  0  0
  9 11  1  0  0  0  0
  1 12  1  0  0  0  0
  3 13  1  0  0  0  0
  5 14  1  0  0  0  0
  5 15  1  0  0  0  0
  5 16  1  0  0  0  0
  6 17  1  0  0  0  0
  7 18  1  0  0  0  0
  9 19  1  0  0  0  0
 10 20  1  0  0  0  0
 10 21  1  0  0  0  0
 10 22  1  0  0  0  0
 11 23  1  0  0  0  0
 11 24  1  0  0  0  0
 11 25  1  0  0  0  0
M  END
$$$$
