C15H14ClN3O4S
APtclcactv12211717063D 0   0.00000     0.00000
 
 38 40  0  0  1  0  0  0  0  0999 V2000
   -0.8250    0.0373   -1.4393 C   0  0  1  0  0  0  0  0  0  0  0  0
    0.1212    1.1596   -1.0539 C   0  0  1  0  0  0  0  0  0  0  0  0
    3.2973    1.0861    1.0820 C   0  0  2  0  0  0  0  0  0  0  0  0
    3.7353   -1.3782    1.1067 C   0  0  0  0  0  0  0  0  0  0  0  0
    5.0980    0.0132   -0.2860 C   0  0  0  0  0  0  0  0  0  0  0  0
    4.4393   -2.4903    0.6844 C   0  0  0  0  0  0  0  0  0  0  0  0
    5.8020   -1.0989   -0.7083 C   0  0  0  0  0  0  0  0  0  0  0  0
    5.4728   -2.3507   -0.2229 C   0  0  0  0  0  0  0  0  0  0  0  0
    0.9264    0.0698    0.5808 H   0  0  0  0  0  0  0  0  0  0  0  0
    4.7101    2.4344    0.4304 H   0  0  0  0  0  0  0  0  0  0  0  0
    3.7458    3.0116    1.6562 H   0  0  0  0  0  0  0  0  0  0  0  0
    4.0648   -0.1263    0.6216 C   0  0  0  0  0  0  0  0  0  0  0  0
   -1.3967    2.8823   -0.0871 O   0  0  0  0  0  0  0  0  0  0  0  0
   -4.0828    2.1301    0.2958 O   0  0  0  0  0  0  0  0  0  0  0  0
    2.5100    2.3676   -0.7367 O   0  0  0  0  0  0  0  0  0  0  0  0
   -2.1699   -2.2596   -0.5525 C   0  0  0  0  0  0  0  0  0  0  0  0
   -5.3027    0.3448    0.8036 O   0  0  0  0  0  0  0  0  0  0  0  0
   -4.1765    0.9189    0.3351 C   0  0  0  0  0  0  0  0  0  0  0  0
    2.2789    1.4626    0.0369 C   0  0  0  0  0  0  0  0  0  0  0  0
   -1.1445    1.7698   -0.4995 C   0  0  0  0  0  0  0  0  0  0  0  0
   -3.0610    0.0793   -0.1287 C   0  0  0  0  0  0  0  0  0  0  0  0
   -3.1622   -1.2452   -0.0867 C   0  0  0  0  0  0  0  0  0  0  0  0
   -6.0083    0.9374    1.0969 H   0  0  0  0  0  0  0  0  0  0  0  0
   -4.6300   -1.8743    0.5940 Cl  0  0  0  0  0  0  0  0  0  0  0  0
    4.2265    2.2055    1.2858 N   0  0  0  0  0  0  0  0  0  0  0  0
    1.1113    0.7936   -0.0380 N   0  0  0  0  0  0  0  0  0  0  0  0
   -0.4874   -1.5778   -0.6609 S   0  0  0  0  0  0  0  0  0  0  0  0
   -1.8874    0.6757   -0.6169 N   0  0  0  0  0  0  0  0  0  0  0  0
   -1.0463   -0.0199   -2.5050 H   0  0  0  0  0  0  0  0  0  0  0  0
    0.5480    1.6985   -1.8998 H   0  0  0  0  0  0  0  0  0  0  0  0
   -2.1675   -3.0978    0.1443 H   0  0  0  0  0  0  0  0  0  0  0  0
   -2.4690   -2.6209   -1.5365 H   0  0  0  0  0  0  0  0  0  0  0  0
    2.7893    0.8602    2.0195 H   0  0  0  0  0  0  0  0  0  0  0  0
    2.9249   -1.4878    1.8121 H   0  0  0  0  0  0  0  0  0  0  0  0
    5.3555    0.9913   -0.6650 H   0  0  0  0  0  0  0  0  0  0  0  0
    4.1821   -3.4683    1.0637 H   0  0  0  0  0  0  0  0  0  0  0  0
    6.6091   -0.9899   -1.4177 H   0  0  0  0  0  0  0  0  0  0  0  0
    6.0233   -3.2195   -0.5522 H   0  0  0  0  0  0  0  0  0  0  0  0
  1 28  1  0  0  0  0
 20 28  1  0  0  0  0
 21 28  1  0  0  0  0
  1  2  1  0  0  0  0
  1 27  1  0  0  0  0
 13 20  2  0  0  0  0
 21 22  2  0  0  0  0
 18 21  1  0  0  0  0
  2 26  1  0  0  0  0
 16 27  1  0  0  0  0
 22 24  1  0  0  0  0
 17 18  1  0  0  0  0
 14 18  2  0  0  0  0
 19 26  1  0  0  0  0
  3 19  1  0  0  0  0
 15 19  2  0  0  0  0
  3 12  1  0  0  0  0
  3 25  1  0  0  0  0
  4 12  2  0  0  0  0
  5 12  1  0  0  0  0
  4  6  1  0  0  0  0
  5  7  2  0  0  0  0
  6  8  2  0  0  0  0
  2 20  1  0  0  0  0
 16 22  1  0  0  0  0
  7  8  1  0  0  0  0
  1 29  1  0  0  0  0
  2 30  1  0  0  0  0
  9 26  1  0  0  0  0
 16 31  1  0  0  0  0
 16 32  1  0  0  0  0
 17 23  1  0  0  0  0
  3 33  1  0  0  0  0
 10 25  1  0  0  0  0
 11 25  1  0  0  0  0
  4 34  1  0  0  0  0
  5 35  1  0  0  0  0
  6 36  1  0  0  0  0
  7 37  1  0  0  0  0
  8 38  1  0  0  0  0
M  END
$$$$
