C16H19N3O4S
APtclcactv12211717123D 0   0.00000     0.00000
 
 43 45  0  0  1  0  0  0  0  0999 V2000
   -1.1267   -0.2630   -1.3489 C   0  0  1  0  0  0  0  0  0  0  0  0
   -0.2653    0.9549   -1.0693 C   0  0  1  0  0  0  0  0  0  0  0  0
    2.9346    1.2908    1.0051 C   0  0  1  0  0  0  0  0  0  0  0  0
   -4.5606   -2.1967    0.7993 C   0  0  0  0  0  0  0  0  0  0  0  0
    0.6431    0.0609    0.6289 H   0  0  0  0  0  0  0  0  0  0  0  0
    4.4536    2.3963    1.8469 H   0  0  0  0  0  0  0  0  0  0  0  0
    4.2302    2.6875    0.2248 H   0  0  0  0  0  0  0  0  0  0  0  0
   -1.8992    2.6273   -0.2095 O   0  0  0  0  0  0  0  0  0  0  0  0
   -5.6095   -0.0223    0.4671 O   0  0  0  0  0  0  0  0  0  0  0  0
    2.0268    2.3623   -0.8916 O   0  0  0  0  0  0  0  0  0  0  0  0
   -2.2792   -2.5771   -0.2600 C   0  0  0  0  0  0  0  0  0  0  0  0
    4.6289    0.1986   -0.6124 C   0  0  0  0  0  0  0  0  0  0  0  0
    4.5712   -2.1741    1.0957 C   0  0  0  0  0  0  0  0  0  0  0  0
   -4.3715    1.8010    0.7379 O   0  0  0  0  0  0  0  0  0  0  0  0
   -4.5139    0.5005    0.4142 C   0  0  0  0  0  0  0  0  0  0  0  0
    1.8765    1.5057   -0.0463 C   0  0  0  0  0  0  0  0  0  0  0  0
   -1.5670    1.5084   -0.5395 C   0  0  0  0  0  0  0  0  0  0  0  0
   -3.3406   -0.2877   -0.0040 C   0  0  0  0  0  0  0  0  0  0  0  0
   -3.3395   -1.6055    0.1432 C   0  0  0  0  0  0  0  0  0  0  0  0
    3.7875    0.1080    0.6250 C   0  0  0  0  0  0  0  0  0  0  0  0
   -5.1696    2.2766    1.0062 H   0  0  0  0  0  0  0  0  0  0  0  0
    3.7769    2.4902    1.1044 N   0  0  0  0  0  0  0  0  0  0  0  0
    3.7622   -0.9453    1.3836 C   0  0  0  0  0  0  0  0  0  0  0  0
    5.0263   -1.1627   -1.0983 C   0  0  0  0  0  0  0  0  0  0  0  0
    5.0002   -2.2163   -0.3401 C   0  0  0  0  0  0  0  0  0  0  0  0
    0.7633    0.7460   -0.0472 N   0  0  0  0  0  0  0  0  0  0  0  0
   -0.6552   -1.7815   -0.4544 S   0  0  0  0  0  0  0  0  0  0  0  0
   -2.2247    0.3551   -0.5583 N   0  0  0  0  0  0  0  0  0  0  0  0
   -1.3567   -0.4203   -2.4027 H   0  0  0  0  0  0  0  0  0  0  0  0
    0.1074    1.4568   -1.9622 H   0  0  0  0  0  0  0  0  0  0  0  0
   -2.2036   -3.3539    0.5009 H   0  0  0  0  0  0  0  0  0  0  0  0
   -2.5629   -3.0376   -1.2063 H   0  0  0  0  0  0  0  0  0  0  0  0
   -5.3380   -2.3482    0.0504 H   0  0  0  0  0  0  0  0  0  0  0  0
   -4.3019   -3.1534    1.2532 H   0  0  0  0  0  0  0  0  0  0  0  0
   -4.9250   -1.5162    1.5688 H   0  0  0  0  0  0  0  0  0  0  0  0
    2.4579    1.1010    1.9668 H   0  0  0  0  0  0  0  0  0  0  0  0
    4.0622    0.7055   -1.3934 H   0  0  0  0  0  0  0  0  0  0  0  0
    5.5271    0.7757   -0.3923 H   0  0  0  0  0  0  0  0  0  0  0  0
    3.1308   -0.9360    2.2597 H   0  0  0  0  0  0  0  0  0  0  0  0
    5.3474   -1.2719   -2.1237 H   0  0  0  0  0  0  0  0  0  0  0  0
    5.4554   -2.1772    1.7330 H   0  0  0  0  0  0  0  0  0  0  0  0
    3.9706   -3.0568    1.3152 H   0  0  0  0  0  0  0  0  0  0  0  0
    5.3014   -3.1639   -0.7618 H   0  0  0  0  0  0  0  0  0  0  0  0
  1 28  1  0  0  0  0
 17 28  1  0  0  0  0
 18 28  1  0  0  0  0
  1  2  1  0  0  0  0
  1 27  1  0  0  0  0
  8 17  2  0  0  0  0
 18 19  2  0  0  0  0
 15 18  1  0  0  0  0
  2 26  1  0  0  0  0
 11 27  1  0  0  0  0
  4 19  1  0  0  0  0
 14 15  1  0  0  0  0
  9 15  2  0  0  0  0
 16 26  1  0  0  0  0
  3 16  1  0  0  0  0
 10 16  2  0  0  0  0
  3 20  1  0  0  0  0
  3 22  1  0  0  0  0
 12 20  1  0  0  0  0
 20 23  2  0  0  0  0
 12 24  1  0  0  0  0
 13 23  1  0  0  0  0
 24 25  2  0  0  0  0
  2 17  1  0  0  0  0
 11 19  1  0  0  0  0
 13 25  1  0  0  0  0
  1 29  1  0  0  0  0
  2 30  1  0  0  0  0
  5 26  1  0  0  0  0
 11 31  1  0  0  0  0
 11 32  1  0  0  0  0
  4 33  1  0  0  0  0
  4 34  1  0  0  0  0
  4 35  1  0  0  0  0
 14 21  1  0  0  0  0
  3 36  1  0  0  0  0
  6 22  1  0  0  0  0
  7 22  1  0  0  0  0
 12 37  1  0  0  0  0
 12 38  1  0  0  0  0
 23 39  1  0  0  0  0
 24 40  1  0  0  0  0
 13 41  1  0  0  0  0
 13 42  1  0  0  0  0
 25 43  1  0  0  0  0
M  END
$$$$
