C18H23N3O8S
APtclcactv12211717173D 0   0.00000     0.00000
 
 53 53  0  0  1  0  0  0  0  0999 V2000
   -0.8168    0.7813    0.8275 C   0  0  1  0  0  0  0  0  0  0  0  0
   -1.5792    1.8675    0.0910 C   0  0  1  0  0  0  0  0  0  0  0  0
   -5.2633    2.0337   -0.9360 C   0  0  2  0  0  0  0  0  0  0  0  0
   -6.1868    0.2017    0.4980 C   0  0  0  0  0  0  0  0  0  0  0  0
   -6.6011    2.4726    1.1335 C   0  0  0  0  0  0  0  0  0  0  0  0
   -6.8979   -0.2363    1.5995 C   0  0  0  0  0  0  0  0  0  0  0  0
   -7.3123    2.0346    2.2350 C   0  0  0  0  0  0  0  0  0  0  0  0
   -7.4608    0.6801    2.4679 C   0  0  0  0  0  0  0  0  0  0  0  0
    1.3292   -2.9375   -0.4802 C   0  0  0  0  0  0  0  0  0  0  0  0
    1.1947   -6.5063    0.7751 C   0  0  0  0  0  0  0  0  0  0  0  0
   -3.1491    0.5479   -0.4589 H   0  0  0  0  0  0  0  0  0  0  0  0
   -6.8538    2.9388   -1.8792 H   0  0  0  0  0  0  0  0  0  0  0  0
   -6.0102    3.9509   -0.8643 H   0  0  0  0  0  0  0  0  0  0  0  0
   -6.0386    1.5562    0.2649 C   0  0  0  0  0  0  0  0  0  0  0  0
   -0.2094    2.2419   -1.9559 O   0  0  0  0  0  0  0  0  0  0  0  0
   -3.6002    3.5984   -0.3399 O   0  0  0  0  0  0  0  0  0  0  0  0
    1.9814    0.4724   -2.3396 O   0  0  0  0  0  0  0  0  0  0  0  0
    2.3864   -5.3034   -0.8634 O   0  0  0  0  0  0  0  0  0  0  0  0
   -0.4191   -1.9819    1.1015 C   0  0  0  0  0  0  0  0  0  0  0  0
    2.3764   -1.7044   -2.1497 O   0  0  0  0  0  0  0  0  0  0  0  0
   -3.8725    2.4291   -0.5113 C   0  0  0  0  0  0  0  0  0  0  0  0
    1.7299   -0.5794   -1.7855 C   0  0  0  0  0  0  0  0  0  0  0  0
    1.5730   -5.2530    0.0287 C   0  0  0  0  0  0  0  0  0  0  0  0
    1.0064   -4.0807    0.3549 O   0  0  0  0  0  0  0  0  0  0  0  0
   -0.5164    1.6286   -0.9555 C   0  0  0  0  0  0  0  0  0  0  0  0
    0.7176   -0.6248   -0.7149 C   0  0  0  0  0  0  0  0  0  0  0  0
    0.5151   -1.7481   -0.0402 C   0  0  0  0  0  0  0  0  0  0  0  0
    2.9765   -1.6408   -2.9054 H   0  0  0  0  0  0  0  0  0  0  0  0
   -5.9429    3.1938   -1.5279 N   0  0  0  0  0  0  0  0  0  0  0  0
   -2.9313    1.4832   -0.3219 N   0  0  0  0  0  0  0  0  0  0  0  0
   14.6321    2.3695    0.5083 H   0  0  0  0  0  0  0  0  0  0  0  0
   15.9479    1.4409    0.3158 H   0  0  0  0  0  0  0  0  0  0  0  0
   -1.7538   -0.7480    1.1620 S   0  0  0  0  0  0  0  0  0  0  0  0
   24.3583    4.4322    1.2438 H   0  0  0  0  0  0  0  0  0  0  0  0
   25.6741    3.5035    1.0512 H   0  0  0  0  0  0  0  0  0  0  0  0
   -0.0319    0.5198   -0.4087 N   0  0  0  0  0  0  0  0  0  0  0  0
   24.7797    3.5781    1.4111 O   0  0  0  0  0  0  0  0  0  0  0  0
   15.0535    1.5154    0.6756 O   0  0  0  0  0  0  0  0  0  0  0  0
   -0.2275    1.1269    1.6769 H   0  0  0  0  0  0  0  0  0  0  0  0
   -1.5334    2.8486    0.5636 H   0  0  0  0  0  0  0  0  0  0  0  0
   -0.8590   -2.9741    1.0010 H   0  0  0  0  0  0  0  0  0  0  0  0
    0.1442   -1.9395    2.0337 H   0  0  0  0  0  0  0  0  0  0  0  0
    2.3903   -2.7066   -0.3856 H   0  0  0  0  0  0  0  0  0  0  0  0
    1.0994   -3.1706   -1.5199 H   0  0  0  0  0  0  0  0  0  0  0  0
   -5.2043    1.2324   -1.6725 H   0  0  0  0  0  0  0  0  0  0  0  0
   -5.7432   -0.5143   -0.1780 H   0  0  0  0  0  0  0  0  0  0  0  0
   -6.4854    3.5308    0.9514 H   0  0  0  0  0  0  0  0  0  0  0  0
   -7.0140   -1.2945    1.7814 H   0  0  0  0  0  0  0  0  0  0  0  0
   -7.7515    2.7506    2.9139 H   0  0  0  0  0  0  0  0  0  0  0  0
   -8.0171    0.3379    3.3280 H   0  0  0  0  0  0  0  0  0  0  0  0
    0.3905   -6.2829    1.4762 H   0  0  0  0  0  0  0  0  0  0  0  0
    0.8593   -7.2638    0.0668 H   0  0  0  0  0  0  0  0  0  0  0  0
    2.0607   -6.8787    1.3224 H   0  0  0  0  0  0  0  0  0  0  0  0
  1 33  1  0  0  0  0
 19 33  1  0  0  0  0
 15 25  2  0  0  0  0
  9 24  1  0  0  0  0
 23 24  1  0  0  0  0
 20 22  1  0  0  0  0
 20 28  1  0  0  0  0
 16 21  2  0  0  0  0
 17 22  2  0  0  0  0
 18 23  2  0  0  0  0
 31 38  1  0  0  0  0
 32 38  1  0  0  0  0
 34 37  1  0  0  0  0
 35 37  1  0  0  0  0
  1 36  1  0  0  0  0
 25 36  1  0  0  0  0
 26 36  1  0  0  0  0
  2 30  1  0  0  0  0
 21 30  1  0  0  0  0
 11 30  1  0  0  0  0
  3 29  1  0  0  0  0
 12 29  1  0  0  0  0
 13 29  1  0  0  0  0
  1  2  1  0  0  0  0
  1 39  1  0  0  0  0
  2 25  1  0  0  0  0
  2 40  1  0  0  0  0
 26 27  2  0  0  0  0
 22 26  1  0  0  0  0
 19 27  1  0  0  0  0
  9 27  1  0  0  0  0
 19 41  1  0  0  0  0
 19 42  1  0  0  0  0
  9 43  1  0  0  0  0
  9 44  1  0  0  0  0
  3 21  1  0  0  0  0
  3 14  1  0  0  0  0
  3 45  1  0  0  0  0
  4 14  2  0  0  0  0
  5 14  1  0  0  0  0
  4  6  1  0  0  0  0
  4 46  1  0  0  0  0
  5  7  2  0  0  0  0
  5 47  1  0  0  0  0
 10 23  1  0  0  0  0
  6  8  2  0  0  0  0
  6 48  1  0  0  0  0
  7  8  1  0  0  0  0
  7 49  1  0  0  0  0
  8 50  1  0  0  0  0
 10 51  1  0  0  0  0
 10 52  1  0  0  0  0
 10 53  1  0  0  0  0
M  END
$$$$
