C16H19N3O5S
APtclcactv12211717123D 0   0.00000     0.00000
 
 44 45  0  0  1  0  0  0  0  0999 V2000
    0.5601   -0.3913    1.1386 C   0  0  1  0  0  0  0  0  0  0  0  0
    0.0955    0.8503    0.3996 C   0  0  1  0  0  0  0  0  0  0  0  0
   -3.2682    1.6223   -1.2571 C   0  0  2  0  0  0  0  0  0  0  0  0
   -4.6717   -0.1756   -0.2261 C   0  0  0  0  0  0  0  0  0  0  0  0
   -4.9203    2.0690    0.5693 C   0  0  0  0  0  0  0  0  0  0  0  0
   -5.6326   -0.6004    0.6723 C   0  0  0  0  0  0  0  0  0  0  0  0
   -5.8812    1.6442    1.4677 C   0  0  0  0  0  0  0  0  0  0  0  0
   -6.2376    0.3096    1.5190 C   0  0  0  0  0  0  0  0  0  0  0  0
    2.4473   -4.2519   -0.1571 C   0  0  0  0  0  0  0  0  0  0  0  0
   -1.4866   -0.1826   -0.5692 H   0  0  0  0  0  0  0  0  0  0  0  0
   -3.7736    3.6127   -1.1122 H   0  0  0  0  0  0  0  0  0  0  0  0
   -3.0176    3.2138   -2.5388 H   0  0  0  0  0  0  0  0  0  0  0  0
   -4.3157    1.1592   -0.2777 C   0  0  0  0  0  0  0  0  0  0  0  0
    1.8742    1.1993   -1.3094 O   0  0  0  0  0  0  0  0  0  0  0  0
    4.1898   -2.7745   -1.0054 O   0  0  0  0  0  0  0  0  0  0  0  0
   -1.5743    2.8798   -0.1993 O   0  0  0  0  0  0  0  0  0  0  0  0
    0.5545   -3.1962    1.1747 C   0  0  0  0  0  0  0  0  0  0  0  0
    3.5821   -0.8782   -1.9878 O   0  0  0  0  0  0  0  0  0  0  0  0
    3.3816   -1.8721   -1.0999 C   0  0  0  0  0  0  0  0  0  0  0  0
   -1.9493    1.7795   -0.5451 C   0  0  0  0  0  0  0  0  0  0  0  0
    1.3047    0.5530   -0.4554 C   0  0  0  0  0  0  0  0  0  0  0  0
    2.1819   -1.8645   -0.2434 C   0  0  0  0  0  0  0  0  0  0  0  0
    1.7152   -3.0010    0.2553 C   0  0  0  0  0  0  0  0  0  0  0  0
    4.3831   -0.9264   -2.5273 H   0  0  0  0  0  0  0  0  0  0  0  0
   -3.6714    2.9127   -1.8317 N   0  0  0  0  0  0  0  0  0  0  0  0
   -1.1866    0.6974   -0.2926 N   0  0  0  0  0  0  0  0  0  0  0  0
   13.7465    5.3781    1.4362 H   0  0  0  0  0  0  0  0  0  0  0  0
   15.2121    4.6984    1.2912 H   0  0  0  0  0  0  0  0  0  0  0  0
   -0.6046   -1.7954    1.1263 S   0  0  0  0  0  0  0  0  0  0  0  0
    1.5333   -0.6555    0.0451 N   0  0  0  0  0  0  0  0  0  0  0  0
   14.3033    4.6065    1.6087 O   0  0  0  0  0  0  0  0  0  0  0  0
    1.0100   -0.2057    2.1140 H   0  0  0  0  0  0  0  0  0  0  0  0
    0.1681    1.7715    0.9777 H   0  0  0  0  0  0  0  0  0  0  0  0
    0.0242   -4.1040    0.8871 H   0  0  0  0  0  0  0  0  0  0  0  0
    0.9256   -3.3130    2.1929 H   0  0  0  0  0  0  0  0  0  0  0  0
    3.3100   -4.3989    0.4927 H   0  0  0  0  0  0  0  0  0  0  0  0
    1.7788   -5.1087   -0.0729 H   0  0  0  0  0  0  0  0  0  0  0  0
    2.7827   -4.1530   -1.1895 H   0  0  0  0  0  0  0  0  0  0  0  0
   -3.1652    0.8860   -2.0542 H   0  0  0  0  0  0  0  0  0  0  0  0
   -4.1959   -0.8872   -0.8845 H   0  0  0  0  0  0  0  0  0  0  0  0
   -4.6422    3.1118    0.5289 H   0  0  0  0  0  0  0  0  0  0  0  0
   -5.9110   -1.6431    0.7124 H   0  0  0  0  0  0  0  0  0  0  0  0
   -6.3534    2.3550    2.1297 H   0  0  0  0  0  0  0  0  0  0  0  0
   -6.9888   -0.0222    2.2204 H   0  0  0  0  0  0  0  0  0  0  0  0
  1 29  1  0  0  0  0
 17 29  1  0  0  0  0
 14 21  2  0  0  0  0
 15 19  2  0  0  0  0
 18 19  1  0  0  0  0
 16 20  2  0  0  0  0
 27 31  1  0  0  0  0
 28 31  1  0  0  0  0
  1 30  1  0  0  0  0
 21 30  1  0  0  0  0
 22 30  1  0  0  0  0
  2 26  1  0  0  0  0
 20 26  1  0  0  0  0
  3 25  1  0  0  0  0
  1  2  1  0  0  0  0
  1 32  1  0  0  0  0
  2 21  1  0  0  0  0
 22 23  2  0  0  0  0
 19 22  1  0  0  0  0
 17 23  1  0  0  0  0
  9 23  1  0  0  0  0
  3 20  1  0  0  0  0
  3 13  1  0  0  0  0
  4 13  2  0  0  0  0
  5 13  1  0  0  0  0
  4  6  1  0  0  0  0
  5  7  2  0  0  0  0
  6  8  2  0  0  0  0
  7  8  1  0  0  0  0
 18 24  1  0  0  0  0
 10 26  1  0  0  0  0
 11 25  1  0  0  0  0
 12 25  1  0  0  0  0
  2 33  1  0  0  0  0
 17 34  1  0  0  0  0
 17 35  1  0  0  0  0
  9 36  1  0  0  0  0
  9 37  1  0  0  0  0
  9 38  1  0  0  0  0
  3 39  1  0  0  0  0
  4 40  1  0  0  0  0
  5 41  1  0  0  0  0
  6 42  1  0  0  0  0
  7 43  1  0  0  0  0
  8 44  1  0  0  0  0
M  END
$$$$
