CHBr2Cl
APtclcactv12101715303D 0   0.00000     0.00000
 
  5  4  0  0  0  0  0  0  0  0999 V2000
    0.0000   -2.1198   -0.0896 Cl  0  0  0  0  0  0  0  0  0  0  0  0
   -0.0000   -0.4464    0.5817 C   0  0  0  0  0  0  0  0  0  0  0  0
    1.6052    0.5069   -0.0344 Br  0  0  0  0  0  0  0  0  0  0  0  0
   -1.6052    0.5069   -0.0344 Br  0  0  0  0  0  0  0  0  0  0  0  0
    0.0000   -0.4918    1.6708 H   0  0  0  0  0  0  0  0  0  0  0  0
  1  2  1  0  0  0  0
  2  3  1  0  0  0  0
  2  4  1  0  0  0  0
  2  5  1  0  0  0  0
M  END
$$$$
