C7H7ClO
APtclcactv12151716163D 0   0.00000     0.00000
 
 16 16  0  0  0  0  0  0  0  0999 V2000
   -2.4226    0.1623    0.0066 Cl  0  0  0  0  0  0  0  0  0  0  0  0
   -0.7565   -0.3252   -0.0006 C   0  0  0  0  0  0  0  0  0  0  0  0
    0.2428    0.6300   -0.0114 C   0  0  0  0  0  0  0  0  0  0  0  0
    1.5739    0.2393   -0.0171 C   0  0  0  0  0  0  0  0  0  0  0  0
    1.8987   -1.1094   -0.0119 C   0  0  0  0  0  0  0  0  0  0  0  0
    0.8967   -2.0607   -0.0011 C   0  0  0  0  0  0  0  0  0  0  0  0
   -0.4291   -1.6699    0.0103 C   0  0  0  0  0  0  0  0  0  0  0  0
    2.5581    1.1763   -0.0282 O   0  0  0  0  0  0  0  0  0  0  0  0
   -0.1135    2.0943   -0.0174 C   0  0  0  0  0  0  0  0  0  0  0  0
    2.9344   -1.4156   -0.0167 H   0  0  0  0  0  0  0  0  0  0  0  0
    1.1497   -3.1106    0.0025 H   0  0  0  0  0  0  0  0  0  0  0  0
   -1.2108   -2.4151    0.0191 H   0  0  0  0  0  0  0  0  0  0  0  0
    2.8482    1.4524    0.8520 H   0  0  0  0  0  0  0  0  0  0  0  0
   -0.1937    2.4530    1.0087 H   0  0  0  0  0  0  0  0  0  0  0  0
    0.6624    2.6549   -0.5387 H   0  0  0  0  0  0  0  0  0  0  0  0
   -1.0670    2.2341   -0.5267 H   0  0  0  0  0  0  0  0  0  0  0  0
  1  2  1  0  0  0  0
  2  3  2  0  0  0  0
  3  4  1  0  0  0  0
  4  5  2  0  0  0  0
  5  6  1  0  0  0  0
  6  7  2  0  0  0  0
  2  7  1  0  0  0  0
  4  8  1  0  0  0  0
  3  9  1  0  0  0  0
  5 10  1  0  0  0  0
  6 11  1  0  0  0  0
  7 12  1  0  0  0  0
  8 13  1  0  0  0  0
  9 14  1  0  0  0  0
  9 15  1  0  0  0  0
  9 16  1  0  0  0  0
M  END
$$$$
