C10H6Cl6O
APtclcactv12151716543D 0   0.00000     0.00000
 
 23 26  0  0  0  0  0  0  0  0999 V2000
    1.9340   -1.5046    1.2719 C   0  0  0  0  0  0  0  0  0  0  0  0
    0.6335    2.7034   -0.5359 Cl  0  0  0  0  0  0  0  0  0  0  0  0
   -0.3688   -0.0716   -2.4074 Cl  0  0  0  0  0  0  0  0  0  0  0  0
    2.2086   -0.4672   -0.9428 Cl  0  0  0  0  0  0  0  0  0  0  0  0
   -2.6168    2.0985    0.5083 Cl  0  0  0  0  0  0  0  0  0  0  0  0
   -0.3668   -2.8770   -0.3471 Cl  0  0  0  0  0  0  0  0  0  0  0  0
   -3.1398   -1.2180    0.6675 Cl  0  0  0  0  0  0  0  0  0  0  0  0
    3.1325    0.5586    0.4634 O   0  0  0  0  0  0  0  0  0  0  0  0
    2.2355    0.9468    1.4906 C   0  0  0  0  0  0  0  0  0  0  0  0
    2.9708   -0.3977    1.5252 C   0  0  0  0  0  0  0  0  0  0  0  0
    0.7490    0.6544    1.4546 C   0  0  0  0  0  0  0  0  0  0  0  0
    0.5448   -0.8799    1.4901 C   0  0  0  0  0  0  0  0  0  0  0  0
   -1.4087    0.8625    0.3451 C   0  0  0  0  0  0  0  0  0  0  0  0
   -1.6111   -0.4419    0.3943 C   0  0  0  0  0  0  0  0  0  0  0  0
    0.1205    1.0964    0.1006 C   0  0  0  0  0  0  0  0  0  0  0  0
   -0.2739   -1.1564    0.1836 C   0  0  0  0  0  0  0  0  0  0  0  0
    0.4390   -0.1541   -0.7976 C   0  0  0  0  0  0  0  0  0  0  0  0
    0.2356    1.1304    2.2900 H   0  0  0  0  0  0  0  0  0  0  0  0
    0.0438   -1.2272    2.3937 H   0  0  0  0  0  0  0  0  0  0  0  0
    2.5592    1.7286    2.1777 H   0  0  0  0  0  0  0  0  0  0  0  0
    3.7831   -0.6046    2.2219 H   0  0  0  0  0  0  0  0  0  0  0  0
    2.0212   -1.8679    0.2480 H   0  0  0  0  0  0  0  0  0  0  0  0
    2.0869   -2.3243    1.9739 H   0  0  0  0  0  0  0  0  0  0  0  0
 11 15  1  0  0  0  0
 11 12  1  0  0  0  0
  9 11  1  0  0  0  0
 15 17  1  0  0  0  0
 13 15  1  0  0  0  0
  2 15  1  0  0  0  0
 12 16  1  0  0  0  0
  1 12  1  0  0  0  0
  9 10  1  0  0  0  0
  8  9  1  0  0  0  0
  3 17  1  0  0  0  0
  4 17  1  0  0  0  0
 13 14  2  0  0  0  0
  5 13  1  0  0  0  0
  6 16  1  0  0  0  0
  7 14  1  0  0  0  0
 16 17  1  0  0  0  0
 14 16  1  0  0  0  0
  1 10  1  0  0  0  0
  8 10  1  0  0  0  0
 11 18  1  0  0  0  0
 12 19  1  0  0  0  0
  9 20  1  0  0  0  0
 10 21  1  0  0  0  0
  1 22  1  0  0  0  0
  1 23  1  0  0  0  0
M  END
$$$$
