C7H6ClN3O4S2
APtclcactv12151716143D 0   0.00000     0.00000
 
 23 24  0  0  0  0  0  0  0  0999 V2000
   -0.0839   -0.8072    0.0585 C   0  0  0  0  0  0  0  0  0  0  0  0
    0.0054    1.9651    0.0222 C   0  0  0  0  0  0  0  0  0  0  0  0
   -2.3717    2.9672    0.2931 H   0  0  0  0  0  0  0  0  0  0  0  0
    3.0058   -0.1939   -2.0207 H   0  0  0  0  0  0  0  0  0  0  0  0
    4.2590   -1.2101   -1.5522 H   0  0  0  0  0  0  0  0  0  0  0  0
    1.1351   -0.1514    0.0526 C   0  0  0  0  0  0  0  0  0  0  0  0
    1.1769    1.2320    0.0338 C   0  0  0  0  0  0  0  0  0  0  0  0
   -2.8028   -1.8133   -1.0282 O   0  0  0  0  0  0  0  0  0  0  0  0
   -3.0907   -1.2500    1.3926 O   0  0  0  0  0  0  0  0  0  0  0  0
    3.4469   -0.5069    1.0856 O   0  0  0  0  0  0  0  0  0  0  0  0
    2.2586   -2.4483    0.0532 O   0  0  0  0  0  0  0  0  0  0  0  0
   -1.2522   -0.0791    0.0457 C   0  0  0  0  0  0  0  0  0  0  0  0
   -1.2205    1.3114    0.0296 C   0  0  0  0  0  0  0  0  0  0  0  0
    2.7081    2.0500    0.0240 Cl  0  0  0  0  0  0  0  0  0  0  0  0
    3.4062   -0.7872   -1.3660 N   0  0  0  0  0  0  0  0  0  0  0  0
   -3.6166    1.5281   -0.3257 C   0  0  0  0  0  0  0  0  0  0  0  0
    2.6338   -1.0779    0.0697 S   0  0  0  0  0  0  0  0  0  0  0  0
   -2.4094    2.0355    0.0257 N   0  0  0  0  0  0  0  0  0  0  0  0
   -3.9288    0.2841   -0.3571 N   0  0  0  0  0  0  0  0  0  0  0  0
   -2.8222   -0.8835    0.0462 S   0  0  0  0  0  0  0  0  0  0  0  0
   -0.1184   -1.8866    0.0685 H   0  0  0  0  0  0  0  0  0  0  0  0
    0.0428    3.0443    0.0078 H   0  0  0  0  0  0  0  0  0  0  0  0
   -4.3843    2.2347   -0.6046 H   0  0  0  0  0  0  0  0  0  0  0  0
 12 13  2  0  0  0  0
  1 12  1  0  0  0  0
 12 20  1  0  0  0  0
  2 13  1  0  0  0  0
 13 18  1  0  0  0  0
  1  6  2  0  0  0  0
 19 20  1  0  0  0  0
  8 20  2  0  0  0  0
  9 20  2  0  0  0  0
  2  7  2  0  0  0  0
 16 18  1  0  0  0  0
  6 17  1  0  0  0  0
  7 14  1  0  0  0  0
 15 17  1  0  0  0  0
 10 17  2  0  0  0  0
 11 17  2  0  0  0  0
  6  7  1  0  0  0  0
 16 19  2  0  0  0  0
  1 21  1  0  0  0  0
  2 22  1  0  0  0  0
 16 23  1  0  0  0  0
  4 15  1  0  0  0  0
  5 15  1  0  0  0  0
  3 18  1  0  0  0  0
M  END
$$$$
