C14H18ClN3S
APtclcactv12211717023D 0   0.00000     0.00000
 
 37 38  0  0  0  0  0  0  0  0999 V2000
    1.6101    1.9676    0.2721 C   0  0  0  0  0  0  0  0  0  0  0  0
    2.8806    2.0065   -0.2772 C   0  0  0  0  0  0  0  0  0  0  0  0
   -0.3730   -2.2567    0.9177 C   0  0  0  0  0  0  0  0  0  0  0  0
   -2.0039   -3.0497   -1.1161 C   0  0  0  0  0  0  0  0  0  0  0  0
   -0.4738   -3.6068    0.6331 C   0  0  0  0  0  0  0  0  0  0  0  0
   -1.3062   -4.0050   -0.4042 C   0  0  0  0  0  0  0  0  0  0  0  0
   -0.0669    0.4912    1.4441 C   0  0  0  0  0  0  0  0  0  0  0  0
   -1.8618    0.9625   -0.2865 C   0  0  0  0  0  0  0  0  0  0  0  0
   -3.1724    1.1575    0.4785 C   0  0  0  0  0  0  0  0  0  0  0  0
   -4.4521    1.5618   -1.5369 C   0  0  0  0  0  0  0  0  0  0  0  0
   -5.1813    2.5061    0.5701 C   0  0  0  0  0  0  0  0  0  0  0  0
    1.2574    0.7905    0.7899 C   0  0  0  0  0  0  0  0  0  0  0  0
   -1.1050   -1.3491    0.1593 C   0  0  0  0  0  0  0  0  0  0  0  0
    3.5592    0.8592   -0.2048 C   0  0  0  0  0  0  0  0  0  0  0  0
    5.1680    0.6082   -0.8070 Cl  0  0  0  0  0  0  0  0  0  0  0  0
   -1.0129    0.0105    0.4340 N   0  0  0  0  0  0  0  0  0  0  0  0
   -4.0237    2.1122   -0.2440 N   0  0  0  0  0  0  0  0  0  0  0  0
   -1.8885   -1.7685   -0.8225 N   0  0  0  0  0  0  0  0  0  0  0  0
    2.5737   -0.3594    0.5935 S   0  0  0  0  0  0  0  0  0  0  0  0
    0.0699   -0.2747    2.2075 H   0  0  0  0  0  0  0  0  0  0  0  0
   -0.4575    1.3983    1.9052 H   0  0  0  0  0  0  0  0  0  0  0  0
    0.9560    2.8270    0.2843 H   0  0  0  0  0  0  0  0  0  0  0  0
   -2.0766    0.5761   -1.2828 H   0  0  0  0  0  0  0  0  0  0  0  0
   -1.3449    1.9184   -0.3711 H   0  0  0  0  0  0  0  0  0  0  0  0
    3.2910    2.8970   -0.7300 H   0  0  0  0  0  0  0  0  0  0  0  0
    0.2619   -1.9125    1.7207 H   0  0  0  0  0  0  0  0  0  0  0  0
   -3.6893    0.2016    0.5631 H   0  0  0  0  0  0  0  0  0  0  0  0
   -2.9576    1.5439    1.4748 H   0  0  0  0  0  0  0  0  0  0  0  0
   -2.6523   -3.3550   -1.9240 H   0  0  0  0  0  0  0  0  0  0  0  0
    0.0829   -4.3346    1.2048 H   0  0  0  0  0  0  0  0  0  0  0  0
   -1.4073   -5.0514   -0.6515 H   0  0  0  0  0  0  0  0  0  0  0  0
   -5.0176    0.6447   -1.3719 H   0  0  0  0  0  0  0  0  0  0  0  0
   -5.0809    2.2889   -2.0508 H   0  0  0  0  0  0  0  0  0  0  0  0
   -3.5758    1.3436   -2.1472 H   0  0  0  0  0  0  0  0  0  0  0  0
   -4.8351    2.9743    1.4915 H   0  0  0  0  0  0  0  0  0  0  0  0
   -5.7946    3.2131    0.0115 H   0  0  0  0  0  0  0  0  0  0  0  0
   -5.7732    1.6231    0.8114 H   0  0  0  0  0  0  0  0  0  0  0  0
 14 15  1  0  0  0  0
 12 19  1  0  0  0  0
 14 19  1  0  0  0  0
 13 16  1  0  0  0  0
  7 16  1  0  0  0  0
  8 16  1  0  0  0  0
 13 18  1  0  0  0  0
  4 18  2  0  0  0  0
  9 17  1  0  0  0  0
 10 17  1  0  0  0  0
 11 17  1  0  0  0  0
  7 12  1  0  0  0  0
  1 12  2  0  0  0  0
  3 13  2  0  0  0  0
  2 14  2  0  0  0  0
  1  2  1  0  0  0  0
  8  9  1  0  0  0  0
  3  5  1  0  0  0  0
  4  6  1  0  0  0  0
  5  6  2  0  0  0  0
  7 20  1  0  0  0  0
  7 21  1  0  0  0  0
  1 22  1  0  0  0  0
  8 23  1  0  0  0  0
  8 24  1  0  0  0  0
  2 25  1  0  0  0  0
  3 26  1  0  0  0  0
  9 27  1  0  0  0  0
  9 28  1  0  0  0  0
  4 29  1  0  0  0  0
  5 30  1  0  0  0  0
  6 31  1  0  0  0  0
 10 32  1  0  0  0  0
 10 33  1  0  0  0  0
 10 34  1  0  0  0  0
 11 35  1  0  0  0  0
 11 36  1  0  0  0  0
 11 37  1  0  0  0  0
M  END
$$$$
