CClN3O6
APtclcactv12101715323D 0   0.00000     0.00000
 
 11 10  0  0  0  0  0  0  0  0999 V2000
    0.5361   -1.3219    1.2954 Cl  0  0  0  0  0  0  0  0  0  0  0  0
    0.0345   -0.0850    0.0833 C   0  0  0  0  0  0  0  0  0  0  0  0
    1.0492    0.9693    0.0128 N   0  3  0  0  0  0  0  0  0  0  0  0
    2.0406    0.9084    0.7177 O   0  0  0  0  0  0  0  0  0  0  0  0
    0.9015    1.9067   -0.7507 O   0  5  0  0  0  0  0  0  0  0  0  0
   -0.1048   -0.7174   -1.2308 N   0  3  0  0  0  0  0  0  0  0  0  0
   -1.1780   -0.6959   -1.8064 O   0  0  0  0  0  0  0  0  0  0  0  0
    0.8527   -1.2646   -1.7478 O   0  5  0  0  0  0  0  0  0  0  0  0
   -1.2487    0.4982    0.4830 N   0  3  0  0  0  0  0  0  0  0  0  0
   -1.5143    1.6486    0.1838 O   0  0  0  0  0  0  0  0  0  0  0  0
   -2.0498   -0.1674    1.1145 O   0  5  0  0  0  0  0  0  0  0  0  0
  1  2  1  0  0  0  0
  2  3  1  0  0  0  0
  3  4  2  0  0  0  0
  3  5  1  0  0  0  0
  2  6  1  0  0  0  0
  6  7  2  0  0  0  0
  6  8  1  0  0  0  0
  2  9  1  0  0  0  0
  9 10  2  0  0  0  0
  9 11  1  0  0  0  0
M  CHG  6   3   1   5  -1   6   1   8  -1   9   1  11  -1
M  END
$$$$
