C9H11Cl3NO4P
APtclcactv12151716453D 0   0.00000     0.00000
 
 29 29  0  0  0  0  0  0  0  0999 V2000
    2.3221    1.5354   -0.3018 C   0  0  0  0  0  0  0  0  0  0  0  0
   -4.1583   -0.1630    1.2476 C   0  0  0  0  0  0  0  0  0  0  0  0
   -2.4195   -2.2485   -1.4438 C   0  0  0  0  0  0  0  0  0  0  0  0
   -5.5631    0.4216    1.4073 C   0  0  0  0  0  0  0  0  0  0  0  0
   -1.9923   -3.7105   -1.2990 C   0  0  0  0  0  0  0  0  0  0  0  0
    0.3009    0.5875    0.5587 C   0  0  0  0  0  0  0  0  0  0  0  0
    0.9741    1.6626   -0.0081 C   0  0  0  0  0  0  0  0  0  0  0  0
    2.2178   -0.6973    0.5483 C   0  0  0  0  0  0  0  0  0  0  0  0
    2.9509    0.3312   -0.0164 C   0  0  0  0  0  0  0  0  0  0  0  0
   -1.6864    0.7866   -1.5821 O   0  0  0  0  0  0  0  0  0  0  0  0
   -1.0197    0.7003    0.8508 O   0  0  0  0  0  0  0  0  0  0  0  0
   -3.5260    0.4215    0.1071 O   0  0  0  0  0  0  0  0  0  0  0  0
   -1.7752   -1.4622   -0.4394 O   0  0  0  0  0  0  0  0  0  0  0  0
    0.1373    3.1462   -0.3434 Cl  0  0  0  0  0  0  0  0  0  0  0  0
    2.9954   -2.2072    0.9082 Cl  0  0  0  0  0  0  0  0  0  0  0  0
    4.6382    0.1180   -0.3648 Cl  0  0  0  0  0  0  0  0  0  0  0  0
   -1.9950    0.1261   -0.2942 P   0  0  0  0  0  0  0  0  0  0  0  0
    0.9339   -0.5449    0.8160 N   0  0  0  0  0  0  0  0  0  0  0  0
   -3.5709    0.0541    2.1398 H   0  0  0  0  0  0  0  0  0  0  0  0
   -4.2271   -1.2423    1.1116 H   0  0  0  0  0  0  0  0  0  0  0  0
   -2.1344   -1.8826   -2.4301 H   0  0  0  0  0  0  0  0  0  0  0  0
   -3.5006   -2.1726   -1.3266 H   0  0  0  0  0  0  0  0  0  0  0  0
   -6.0454   -0.0242    2.2772 H   0  0  0  0  0  0  0  0  0  0  0  0
   -5.4943    1.5009    1.5433 H   0  0  0  0  0  0  0  0  0  0  0  0
   -6.1506    0.2046    0.5152 H   0  0  0  0  0  0  0  0  0  0  0  0
   -0.9113   -3.7864   -1.4162 H   0  0  0  0  0  0  0  0  0  0  0  0
   -2.2774   -4.0764   -0.3127 H   0  0  0  0  0  0  0  0  0  0  0  0
   -2.4838   -4.3102   -2.0651 H   0  0  0  0  0  0  0  0  0  0  0  0
    2.8700    2.3528   -0.7467 H   0  0  0  0  0  0  0  0  0  0  0  0
 11 17  1  0  0  0  0
 12 17  1  0  0  0  0
 13 17  1  0  0  0  0
 10 17  2  0  0  0  0
  6 11  1  0  0  0  0
  2 12  1  0  0  0  0
  3 13  1  0  0  0  0
  6  7  2  0  0  0  0
  6 18  1  0  0  0  0
  2  4  1  0  0  0  0
  3  5  1  0  0  0  0
  7 14  1  0  0  0  0
  1  7  1  0  0  0  0
  8 18  2  0  0  0  0
  1  9  2  0  0  0  0
  8  9  1  0  0  0  0
  8 15  1  0  0  0  0
  9 16  1  0  0  0  0
  2 19  1  0  0  0  0
  2 20  1  0  0  0  0
  3 21  1  0  0  0  0
  3 22  1  0  0  0  0
  4 23  1  0  0  0  0
  4 24  1  0  0  0  0
  4 25  1  0  0  0  0
  5 26  1  0  0  0  0
  5 27  1  0  0  0  0
  5 28  1  0  0  0  0
  1 29  1  0  0  0  0
M  END
$$$$
