C14H11ClN2O4S
APtclcactv12091702563D 0   0.00000     0.00000
 
 33 35  0  0  0  0  0  0  0  0999 V2000
    2.3294    1.8862    0.6003 C   0  0  0  0  0  0  0  0  0  0  0  0
   -0.6666    0.3408   -0.6237 C   0  0  0  0  0  0  0  0  0  0  0  0
    0.2790   -1.6811    0.2437 C   0  0  0  0  0  0  0  0  0  0  0  0
    4.6482    0.4563    1.1368 C   0  0  0  0  0  0  0  0  0  0  0  0
    3.2626    2.3787    1.4970 C   0  0  0  0  0  0  0  0  0  0  0  0
   -0.9488   -2.0287    0.7742 C   0  0  0  0  0  0  0  0  0  0  0  0
    4.4174    1.6638    1.7624 C   0  0  0  0  0  0  0  0  0  0  0  0
    2.2980   -2.0355   -1.9193 H   0  0  0  0  0  0  0  0  0  0  0  0
    1.0780    0.1757   -2.9177 H   0  0  0  0  0  0  0  0  0  0  0  0
   -5.3307    0.4284   -1.1355 H   0  0  0  0  0  0  0  0  0  0  0  0
   -4.0804   -0.3960   -1.8968 H   0  0  0  0  0  0  0  0  0  0  0  0
    0.4201   -0.4964   -0.4550 C   0  0  0  0  0  0  0  0  0  0  0  0
   -1.8953   -0.0058   -0.0934 C   0  0  0  0  0  0  0  0  0  0  0  0
   -2.0371   -1.1907    0.6061 C   0  0  0  0  0  0  0  0  0  0  0  0
    4.5399   -2.1342   -0.5822 O   0  0  0  0  0  0  0  0  0  0  0  0
   -3.8744    1.2114    0.9743 O   0  0  0  0  0  0  0  0  0  0  0  0
   -2.8240    2.1600   -1.0858 O   0  0  0  0  0  0  0  0  0  0  0  0
    1.5799    0.6381   -2.2326 O   0  0  0  0  0  0  0  0  0  0  0  0
    3.6751   -1.2801   -0.5778 C   0  0  0  0  0  0  0  0  0  0  0  0
    2.5499    0.6829   -0.0291 C   0  0  0  0  0  0  0  0  0  0  0  0
    3.7120   -0.0468    0.2314 C   0  0  0  0  0  0  0  0  0  0  0  0
   -3.5799   -1.6269    1.2718 Cl  0  0  0  0  0  0  0  0  0  0  0  0
   -4.3827    0.2531   -1.2424 N   0  0  0  0  0  0  0  0  0  0  0  0
   -3.2805    1.0619   -0.3080 S   0  0  0  0  0  0  0  0  0  0  0  0
    1.7593   -0.1180   -1.0333 C   0  0  0  0  0  0  0  0  0  0  0  0
    2.5483   -1.3240   -1.3094 N   0  0  0  0  0  0  0  0  0  0  0  0
    1.4270    2.4442    0.3985 H   0  0  0  0  0  0  0  0  0  0  0  0
   -0.5548    1.2680   -1.1660 H   0  0  0  0  0  0  0  0  0  0  0  0
    1.1284   -2.3351    0.3748 H   0  0  0  0  0  0  0  0  0  0  0  0
    5.5509   -0.0983    1.3465 H   0  0  0  0  0  0  0  0  0  0  0  0
    3.0889    3.3236    1.9904 H   0  0  0  0  0  0  0  0  0  0  0  0
   -1.0590   -2.9543    1.3196 H   0  0  0  0  0  0  0  0  0  0  0  0
    5.1413    2.0530    2.4630 H   0  0  0  0  0  0  0  0  0  0  0  0
 20 25  1  0  0  0  0
 12 25  1  0  0  0  0
 25 26  1  0  0  0  0
 18 25  1  0  0  0  0
 20 21  2  0  0  0  0
  1 20  1  0  0  0  0
  2 12  2  0  0  0  0
  3 12  1  0  0  0  0
 19 26  1  0  0  0  0
  4 21  1  0  0  0  0
  1  5  2  0  0  0  0
  2 13  1  0  0  0  0
  3  6  2  0  0  0  0
 15 19  2  0  0  0  0
  4  7  2  0  0  0  0
 13 14  2  0  0  0  0
 13 24  1  0  0  0  0
 14 22  1  0  0  0  0
 23 24  1  0  0  0  0
 16 24  2  0  0  0  0
 17 24  2  0  0  0  0
 19 21  1  0  0  0  0
  5  7  1  0  0  0  0
  6 14  1  0  0  0  0
  8 26  1  0  0  0  0
  9 18  1  0  0  0  0
  1 27  1  0  0  0  0
  2 28  1  0  0  0  0
  3 29  1  0  0  0  0
  4 30  1  0  0  0  0
  5 31  1  0  0  0  0
  6 32  1  0  0  0  0
  7 33  1  0  0  0  0
 10 23  1  0  0  0  0
 11 23  1  0  0  0  0
M  END
$$$$
