C18H18ClNS
APtclcactv12211717163D 0   0.00000     0.00000
 
 39 41  0  0  0  0  0  0  0  0999 V2000
    1.1221    1.0723   -0.7011 C   0  0  0  0  0  0  0  0  0  0  0  0
   -2.7955   -1.7475   -1.1968 C   0  0  0  0  0  0  0  0  0  0  0  0
   -0.1512    2.9078    0.9389 C   0  0  0  0  0  0  0  0  0  0  0  0
   -4.4015   -0.1520    0.4019 C   0  0  0  0  0  0  0  0  0  0  0  0
   -4.1563   -1.9593   -1.1537 C   0  0  0  0  0  0  0  0  0  0  0  0
    1.0889    3.1940    0.4101 C   0  0  0  0  0  0  0  0  0  0  0  0
   -4.9589   -1.1601   -0.3547 C   0  0  0  0  0  0  0  0  0  0  0  0
    1.5018   -1.5138   -0.5816 C   0  0  0  0  0  0  0  0  0  0  0  0
    1.9091   -2.8117    0.1187 C   0  0  0  0  0  0  0  0  0  0  0  0
    3.6629   -1.7372    1.3963 C   0  0  0  0  0  0  0  0  0  0  0  0
    3.8229   -4.0939    0.8643 C   0  0  0  0  0  0  0  0  0  0  0  0
    1.7272    2.2766   -0.4096 C   0  0  0  0  0  0  0  0  0  0  0  0
   -0.7583   -0.5244   -0.5044 C   0  0  0  0  0  0  0  0  0  0  0  0
   -0.1363    0.7714   -0.1719 C   0  0  0  0  0  0  0  0  0  0  0  0
   -2.2180   -0.7275   -0.4351 C   0  0  0  0  0  0  0  0  0  0  0  0
   -0.7772    1.6941    0.6554 C   0  0  0  0  0  0  0  0  0  0  0  0
   -3.0257    0.0757    0.3712 C   0  0  0  0  0  0  0  0  0  0  0  0
    3.2903    2.6438   -1.0696 Cl  0  0  0  0  0  0  0  0  0  0  0  0
    0.0251   -1.5464   -0.8808 C   0  0  0  0  0  0  0  0  0  0  0  0
    3.3485   -2.7798    0.4103 N   0  0  0  0  0  0  0  0  0  0  0  0
   -2.3559    1.3685    1.3544 S   0  0  0  0  0  0  0  0  0  0  0  0
   -0.4024   -2.3926   -1.3981 H   0  0  0  0  0  0  0  0  0  0  0  0
    1.6198    0.3613   -1.3439 H   0  0  0  0  0  0  0  0  0  0  0  0
   -2.1730   -2.3717   -1.8207 H   0  0  0  0  0  0  0  0  0  0  0  0
    1.7223   -0.6661    0.0673 H   0  0  0  0  0  0  0  0  0  0  0  0
    2.0590   -1.4130   -1.5129 H   0  0  0  0  0  0  0  0  0  0  0  0
   -0.6415    3.6280    1.5771 H   0  0  0  0  0  0  0  0  0  0  0  0
   -5.0340    0.4658    1.0222 H   0  0  0  0  0  0  0  0  0  0  0  0
   -4.5982   -2.7485   -1.7441 H   0  0  0  0  0  0  0  0  0  0  0  0
    1.3518   -2.9124    1.0500 H   0  0  0  0  0  0  0  0  0  0  0  0
    1.6885   -3.6593   -0.5302 H   0  0  0  0  0  0  0  0  0  0  0  0
    1.5650    4.1368    0.6352 H   0  0  0  0  0  0  0  0  0  0  0  0
   -6.0252   -1.3287   -0.3241 H   0  0  0  0  0  0  0  0  0  0  0  0
    3.1232   -1.9377    2.3218 H   0  0  0  0  0  0  0  0  0  0  0  0
    4.7349   -1.7354    1.5939 H   0  0  0  0  0  0  0  0  0  0  0  0
    3.3641   -0.7649    1.0047 H   0  0  0  0  0  0  0  0  0  0  0  0
    3.6403   -4.8348    0.0859 H   0  0  0  0  0  0  0  0  0  0  0  0
    4.8914   -4.0422    1.0732 H   0  0  0  0  0  0  0  0  0  0  0  0
    3.2889   -4.3798    1.7705 H   0  0  0  0  0  0  0  0  0  0  0  0
 13 14  1  0  0  0  0
 13 15  1  0  0  0  0
 13 19  2  0  0  0  0
 14 16  2  0  0  0  0
  1 14  1  0  0  0  0
 15 17  2  0  0  0  0
  2 15  1  0  0  0  0
  8 19  1  0  0  0  0
 16 21  1  0  0  0  0
  3 16  1  0  0  0  0
  1 12  2  0  0  0  0
  4 17  1  0  0  0  0
  2  5  2  0  0  0  0
  8  9  1  0  0  0  0
  3  6  2  0  0  0  0
 12 18  1  0  0  0  0
  4  7  2  0  0  0  0
  9 20  1  0  0  0  0
 10 20  1  0  0  0  0
 11 20  1  0  0  0  0
 17 21  1  0  0  0  0
  6 12  1  0  0  0  0
  5  7  1  0  0  0  0
 19 22  1  0  0  0  0
  1 23  1  0  0  0  0
  2 24  1  0  0  0  0
  8 25  1  0  0  0  0
  8 26  1  0  0  0  0
  3 27  1  0  0  0  0
  4 28  1  0  0  0  0
  5 29  1  0  0  0  0
  9 30  1  0  0  0  0
  9 31  1  0  0  0  0
  6 32  1  0  0  0  0
  7 33  1  0  0  0  0
 10 34  1  0  0  0  0
 10 35  1  0  0  0  0
 10 36  1  0  0  0  0
 11 37  1  0  0  0  0
 11 38  1  0  0  0  0
 11 39  1  0  0  0  0
M  END
$$$$
