CCl3NO2
APtclcactv12101715323D 0   0.00000     0.00000
 
  7  6  0  0  0  0  0  0  0  0999 V2000
   -1.9342   -1.0548    0.0041 O   0  0  0  0  0  0  0  0  0  0  0  0
   -1.3252   -0.0000    0.0047 N   0  3  0  0  0  0  0  0  0  0  0  0
    0.1398   -0.0000    0.0000 C   0  0  0  0  0  0  0  0  0  0  0  0
    0.7354    0.0041   -1.7017 Cl  0  0  0  0  0  0  0  0  0  0  0  0
    0.7435    1.4701    0.8516 Cl  0  0  0  0  0  0  0  0  0  0  0  0
    0.7435   -1.4742    0.8445 Cl  0  0  0  0  0  0  0  0  0  0  0  0
   -1.9342    1.0548    0.0041 O   0  5  0  0  0  0  0  0  0  0  0  0
  1  2  2  0  0  0  0
  2  3  1  0  0  0  0
  3  4  1  0  0  0  0
  3  5  1  0  0  0  0
  3  6  1  0  0  0  0
  2  7  1  0  0  0  0
M  CHG  2   2   1   7  -1
M  END
$$$$
