C16H14ClN3O
APtclcactv12211717103D 0   0.00000     0.00000
 
 35 37  0  0  0  0  0  0  0  0999 V2000
    1.9332   -2.4841   -0.6693 C   0  0  0  0  0  0  0  0  0  0  0  0
    2.1740   -0.8985    1.1429 C   0  0  0  0  0  0  0  0  0  0  0  0
    3.1955   -2.9688   -0.4011 C   0  0  0  0  0  0  0  0  0  0  0  0
    3.4343   -1.3950    1.3981 C   0  0  0  0  0  0  0  0  0  0  0  0
    3.9449   -2.4266    0.6289 C   0  0  0  0  0  0  0  0  0  0  0  0
   -5.2027    0.0958    0.4307 C   0  0  0  0  0  0  0  0  0  0  0  0
    1.4096   -1.4409    0.1033 C   0  0  0  0  0  0  0  0  0  0  0  0
   -2.0766   -1.9821    0.3597 C   0  0  0  0  0  0  0  0  0  0  0  0
   -0.8191   -2.5149   -1.7010 O   0  0  0  0  0  0  0  0  0  0  0  0
    0.0638   -0.9173   -0.1760 C   0  0  0  0  0  0  0  0  0  0  0  0
   -2.9726   -0.7941    0.3445 C   0  0  0  0  0  0  0  0  0  0  0  0
    0.8429    2.6617   -0.1896 C   0  0  0  0  0  0  0  0  0  0  0  0
   -1.5624   -3.1129   -1.8591 H   0  0  0  0  0  0  0  0  0  0  0  0
    2.2487    3.6674   -0.3512 Cl  0  0  0  0  0  0  0  0  0  0  0  0
    0.9772    1.3098   -0.2265 C   0  0  0  0  0  0  0  0  0  0  0  0
   -1.5295    2.5000    0.1143 C   0  0  0  0  0  0  0  0  0  0  0  0
   -0.4073    3.2500   -0.0225 C   0  0  0  0  0  0  0  0  0  0  0  0
   -4.2569   -1.0230    0.4384 N   0  0  0  0  0  0  0  0  0  0  0  0
   -0.9177   -1.7798   -0.4947 N   0  0  0  0  0  0  0  0  0  0  0  0
   -0.1573    0.4739   -0.1009 C   0  0  0  0  0  0  0  0  0  0  0  0
   -1.4636    1.0822    0.0900 C   0  0  0  0  0  0  0  0  0  0  0  0
   -2.6061    0.4428    0.2478 N   0  0  0  0  0  0  0  0  0  0  0  0
   -1.7402   -2.1627    1.3806 H   0  0  0  0  0  0  0  0  0  0  0  0
   -2.6313   -2.8523    0.0087 H   0  0  0  0  0  0  0  0  0  0  0  0
    1.9559    0.8709   -0.3527 H   0  0  0  0  0  0  0  0  0  0  0  0
   -2.4845    2.9875    0.2435 H   0  0  0  0  0  0  0  0  0  0  0  0
    1.3516   -2.9051   -1.4760 H   0  0  0  0  0  0  0  0  0  0  0  0
    1.7771   -0.0936    1.7439 H   0  0  0  0  0  0  0  0  0  0  0  0
   -0.4859    4.3269   -0.0017 H   0  0  0  0  0  0  0  0  0  0  0  0
    3.6008   -3.7739   -0.9960 H   0  0  0  0  0  0  0  0  0  0  0  0
    4.0254   -0.9776    2.1999 H   0  0  0  0  0  0  0  0  0  0  0  0
    4.9332   -2.8109    0.8338 H   0  0  0  0  0  0  0  0  0  0  0  0
   -6.2195   -0.2875    0.5171 H   0  0  0  0  0  0  0  0  0  0  0  0
   -4.9908    0.7565    1.2714 H   0  0  0  0  0  0  0  0  0  0  0  0
   -5.1016    0.6507   -0.5020 H   0  0  0  0  0  0  0  0  0  0  0  0
 12 14  1  0  0  0  0
  9 19  1  0  0  0  0
  9 13  1  0  0  0  0
 10 19  1  0  0  0  0
  8 19  1  0  0  0  0
 21 22  2  0  0  0  0
 11 22  1  0  0  0  0
 11 18  2  0  0  0  0
  6 18  1  0  0  0  0
 10 20  2  0  0  0  0
  7 10  1  0  0  0  0
 20 21  1  0  0  0  0
 15 20  1  0  0  0  0
  8 11  1  0  0  0  0
  8 23  1  0  0  0  0
  8 24  1  0  0  0  0
 16 21  1  0  0  0  0
  1  7  2  0  0  0  0
  2  7  1  0  0  0  0
 12 15  2  0  0  0  0
 15 25  1  0  0  0  0
 16 17  2  0  0  0  0
 16 26  1  0  0  0  0
  1  3  1  0  0  0  0
  1 27  1  0  0  0  0
  2  4  2  0  0  0  0
  2 28  1  0  0  0  0
 12 17  1  0  0  0  0
 17 29  1  0  0  0  0
  3  5  2  0  0  0  0
  3 30  1  0  0  0  0
  4  5  1  0  0  0  0
  4 31  1  0  0  0  0
  5 32  1  0  0  0  0
  6 33  1  0  0  0  0
  6 34  1  0  0  0  0
  6 35  1  0  0  0  0
M  END
$$$$
