C9H11Cl3NO3PS
APtclcactv12151716453D 0   0.00000     0.00000
 
 29 29  0  0  0  0  0  0  0  0999 V2000
    2.2564   -1.5900    0.2900 C   0  0  0  0  0  0  0  0  0  0  0  0
   -2.3475    2.4399    1.0220 C   0  0  0  0  0  0  0  0  0  0  0  0
   -4.5077   -0.2122    0.1028 C   0  0  0  0  0  0  0  0  0  0  0  0
   -2.0356    3.9305    0.8746 C   0  0  0  0  0  0  0  0  0  0  0  0
   -5.7426   -0.6205   -0.7029 C   0  0  0  0  0  0  0  0  0  0  0  0
    0.4824   -0.4234   -0.8127 C   0  0  0  0  0  0  0  0  0  0  0  0
    0.9580   -1.5723   -0.1931 C   0  0  0  0  0  0  0  0  0  0  0  0
    2.4964    0.6569   -0.4927 C   0  0  0  0  0  0  0  0  0  0  0  0
    3.0359   -0.4519    0.1349 C   0  0  0  0  0  0  0  0  0  0  0  0
   -0.7878   -0.3942   -1.2899 O   0  0  0  0  0  0  0  0  0  0  0  0
   -1.7514    1.7194   -0.0585 O   0  0  0  0  0  0  0  0  0  0  0  0
   -3.3549   -0.2492   -0.7409 O   0  0  0  0  0  0  0  0  0  0  0  0
   -0.0611   -2.9679   -0.0268 Cl  0  0  0  0  0  0  0  0  0  0  0  0
    3.4632    2.0851   -0.6908 Cl  0  0  0  0  0  0  0  0  0  0  0  0
    4.6692   -0.4199    0.7222 Cl  0  0  0  0  0  0  0  0  0  0  0  0
   -1.8767    0.1227   -0.2225 P   0  0  0  0  0  0  0  0  0  0  0  0
    1.2549    0.6424   -0.9419 N   0  0  0  0  0  0  0  0  0  0  0  0
   -1.5710   -0.6967    1.4230 S   0  0  0  0  0  0  0  0  0  0  0  0
   -1.9447    2.0762    1.9673 H   0  0  0  0  0  0  0  0  0  0  0  0
   -3.4272    2.2913    1.0060 H   0  0  0  0  0  0  0  0  0  0  0  0
   -4.6433    0.7983    0.4885 H   0  0  0  0  0  0  0  0  0  0  0  0
   -4.3716   -0.9034    0.9345 H   0  0  0  0  0  0  0  0  0  0  0  0
   -2.4903    4.4801    1.6988 H   0  0  0  0  0  0  0  0  0  0  0  0
   -0.9559    4.0791    0.8906 H   0  0  0  0  0  0  0  0  0  0  0  0
   -2.4385    4.2942   -0.0707 H   0  0  0  0  0  0  0  0  0  0  0  0
   -5.8787    0.0707   -1.5347 H   0  0  0  0  0  0  0  0  0  0  0  0
   -5.6070   -1.6309   -1.0886 H   0  0  0  0  0  0  0  0  0  0  0  0
   -6.6219   -0.5923   -0.0594 H   0  0  0  0  0  0  0  0  0  0  0  0
    2.6516   -2.4675    0.7800 H   0  0  0  0  0  0  0  0  0  0  0  0
 10 16  1  0  0  0  0
 11 16  1  0  0  0  0
 12 16  1  0  0  0  0
 16 18  2  0  0  0  0
  6 10  1  0  0  0  0
  2 11  1  0  0  0  0
  3 12  1  0  0  0  0
  6  7  2  0  0  0  0
  6 17  1  0  0  0  0
  2  4  1  0  0  0  0
  3  5  1  0  0  0  0
  1  7  1  0  0  0  0
  7 13  1  0  0  0  0
  8 17  2  0  0  0  0
  1  9  2  0  0  0  0
  8 14  1  0  0  0  0
  9 15  1  0  0  0  0
  8  9  1  0  0  0  0
  2 19  1  0  0  0  0
  2 20  1  0  0  0  0
  3 21  1  0  0  0  0
  3 22  1  0  0  0  0
  4 23  1  0  0  0  0
  4 24  1  0  0  0  0
  4 25  1  0  0  0  0
  5 26  1  0  0  0  0
  5 27  1  0  0  0  0
  5 28  1  0  0  0  0
  1 29  1  0  0  0  0
M  END
$$$$
