C10H13ClN2
APtclcactv12211717243D 0   0.00000     0.00000
 
 26 26  0  0  0  0  0  0  0  0999 V2000
    1.9928   -1.0179   -0.1888 C   0  0  0  0  0  0  0  0  0  0  0  0
    0.3447    1.1255    0.4348 C   0  0  0  0  0  0  0  0  0  0  0  0
    1.7084    1.3081    0.3352 C   0  0  0  0  0  0  0  0  0  0  0  0
    0.0449   -2.5820   -0.3227 C   0  0  0  0  0  0  0  0  0  0  0  0
   -4.2540   -0.6768    0.7811 C   0  0  0  0  0  0  0  0  0  0  0  0
   -4.6431    1.2890   -0.7755 C   0  0  0  0  0  0  0  0  0  0  0  0
   -0.2045   -0.1396    0.2216 C   0  0  0  0  0  0  0  0  0  0  0  0
    0.6302   -1.2127   -0.0915 C   0  0  0  0  0  0  0  0  0  0  0  0
    2.5319    0.2393    0.0236 C   0  0  0  0  0  0  0  0  0  0  0  0
    4.2470    0.4768   -0.1005 Cl  0  0  0  0  0  0  0  0  0  0  0  0
   -2.3756    0.4896   -0.2837 C   0  0  0  0  0  0  0  0  0  0  0  0
   -1.5602   -0.3272    0.3193 N   0  0  0  0  0  0  0  0  0  0  0  0
   -3.7257    0.3701   -0.0971 N   0  0  0  0  0  0  0  0  0  0  0  0
    2.6404   -1.8488   -0.4268 H   0  0  0  0  0  0  0  0  0  0  0  0
   -0.2966    1.9599    0.6771 H   0  0  0  0  0  0  0  0  0  0  0  0
    2.1346    2.2866    0.5002 H   0  0  0  0  0  0  0  0  0  0  0  0
   -1.9861    1.2613   -0.9311 H   0  0  0  0  0  0  0  0  0  0  0  0
   -0.1983   -2.6997   -1.3786 H   0  0  0  0  0  0  0  0  0  0  0  0
    0.7702   -3.3413   -0.0301 H   0  0  0  0  0  0  0  0  0  0  0  0
   -0.8605   -2.6955    0.2736 H   0  0  0  0  0  0  0  0  0  0  0  0
   -4.3315   -0.2929    1.7983 H   0  0  0  0  0  0  0  0  0  0  0  0
   -5.2406   -0.9808    0.4313 H   0  0  0  0  0  0  0  0  0  0  0  0
   -3.5830   -1.5356    0.7670 H   0  0  0  0  0  0  0  0  0  0  0  0
   -4.0712    1.9927   -1.3803 H   0  0  0  0  0  0  0  0  0  0  0  0
   -5.3167    0.7217   -1.4177 H   0  0  0  0  0  0  0  0  0  0  0  0
   -5.2240    1.8364   -0.0331 H   0  0  0  0  0  0  0  0  0  0  0  0
  9 10  1  0  0  0  0
  7 12  1  0  0  0  0
 11 12  2  0  0  0  0
 11 13  1  0  0  0  0
  5 13  1  0  0  0  0
  6 13  1  0  0  0  0
  7  8  2  0  0  0  0
  2  7  1  0  0  0  0
  1  8  1  0  0  0  0
  4  8  1  0  0  0  0
  1  9  2  0  0  0  0
  3  9  1  0  0  0  0
  2  3  2  0  0  0  0
  1 14  1  0  0  0  0
  2 15  1  0  0  0  0
  3 16  1  0  0  0  0
 11 17  1  0  0  0  0
  4 18  1  0  0  0  0
  4 19  1  0  0  0  0
  4 20  1  0  0  0  0
  5 21  1  0  0  0  0
  5 22  1  0  0  0  0
  5 23  1  0  0  0  0
  6 24  1  0  0  0  0
  6 25  1  0  0  0  0
  6 26  1  0  0  0  0
M  END
$$$$
