C10H10Cl2O2
APtclcactv12211717223D 0   0.00000     0.00000
 
 24 24  0  0  0  0  0  0  0  0999 V2000
    1.2988    0.7979    0.8736 C   0  0  0  0  0  0  0  0  0  0  0  0
    1.2514   -1.4580    0.0713 C   0  0  0  0  0  0  0  0  0  0  0  0
    2.6411    0.8835    0.5554 C   0  0  0  0  0  0  0  0  0  0  0  0
    2.5935   -1.3735   -0.2476 C   0  0  0  0  0  0  0  0  0  0  0  0
   -0.8595   -0.4652    0.9785 C   0  0  0  0  0  0  0  0  0  0  0  0
   -5.3582   -0.9574   -0.4783 C   0  0  0  0  0  0  0  0  0  0  0  0
    0.6040   -0.3725    0.6314 C   0  0  0  0  0  0  0  0  0  0  0  0
    3.2894   -0.2024   -0.0055 C   0  0  0  0  0  0  0  0  0  0  0  0
   -3.6081    0.1068    1.1512 O   0  0  0  0  0  0  0  0  0  0  0  0
   -3.1590   -0.2288    0.0809 C   0  0  0  0  0  0  0  0  0  0  0  0
   -3.9619   -0.7873   -0.8385 O   0  0  0  0  0  0  0  0  0  0  0  0
   -1.6975   -0.0204   -0.2219 C   0  0  0  0  0  0  0  0  0  0  0  0
   -1.3952    1.7262   -0.5518 Cl  0  0  0  0  0  0  0  0  0  0  0  0
    4.9752   -0.0954   -0.4059 Cl  0  0  0  0  0  0  0  0  0  0  0  0
   -1.1080   -1.4955    1.2333 H   0  0  0  0  0  0  0  0  0  0  0  0
   -1.0727    0.1812    1.8299 H   0  0  0  0  0  0  0  0  0  0  0  0
    0.7936    1.6440    1.3156 H   0  0  0  0  0  0  0  0  0  0  0  0
    0.7081   -2.3721   -0.1176 H   0  0  0  0  0  0  0  0  0  0  0  0
   -1.4202   -0.6087   -1.0966 H   0  0  0  0  0  0  0  0  0  0  0  0
    3.1836    1.7980    0.7443 H   0  0  0  0  0  0  0  0  0  0  0  0
    3.0993   -2.2217   -0.6848 H   0  0  0  0  0  0  0  0  0  0  0  0
   -5.8939   -1.4185   -1.3080 H   0  0  0  0  0  0  0  0  0  0  0  0
   -5.4311   -1.5968    0.4015 H   0  0  0  0  0  0  0  0  0  0  0  0
   -5.7976    0.0154   -0.2578 H   0  0  0  0  0  0  0  0  0  0  0  0
  5  7  1  0  0  0  0
  1  7  1  0  0  0  0
  2  7  2  0  0  0  0
  5 12  1  0  0  0  0
  1  3  2  0  0  0  0
  2  4  1  0  0  0  0
 10 12  1  0  0  0  0
 12 13  1  0  0  0  0
  3  8  1  0  0  0  0
 10 11  1  0  0  0  0
  9 10  2  0  0  0  0
  8 14  1  0  0  0  0
  6 11  1  0  0  0  0
  4  8  2  0  0  0  0
  5 15  1  0  0  0  0
  5 16  1  0  0  0  0
  1 17  1  0  0  0  0
  2 18  1  0  0  0  0
 12 19  1  0  0  0  0
  3 20  1  0  0  0  0
  4 21  1  0  0  0  0
  6 22  1  0  0  0  0
  6 23  1  0  0  0  0
  6 24  1  0  0  0  0
M  END
$$$$
