C8H11Cl3O6
APtclcactv12151716333D 0   0.00000     0.00000
 
 28 29  0  0  1  0  0  0  0  0999 V2000
   -2.0161    0.0728    0.0044 C   0  0  1  0  0  0  0  0  0  0  0  0
   -0.4019    1.7733   -0.5583 C   0  0  1  0  0  0  0  0  0  0  0  0
   -1.6507    1.5438    0.3263 C   0  0  1  0  0  0  0  0  0  0  0  0
    1.5694    0.6220   -0.6817 C   0  0  2  0  0  0  0  0  0  0  0  0
   -3.5004   -0.1847    0.2716 C   0  0  1  0  0  0  0  0  0  0  0  0
   -3.8567   -1.6087   -0.1597 C   0  0  0  0  0  0  0  0  0  0  0  0
   -2.5296    3.3577    0.1303 H   0  0  0  0  0  0  0  0  0  0  0  0
   -3.2667   -0.6320    2.2328 H   0  0  0  0  0  0  0  0  0  0  0  0
   -5.5624   -2.6944   -0.2754 H   0  0  0  0  0  0  0  0  0  0  0  0
   -2.7103    2.4252   -0.0511 O   0  0  0  0  0  0  0  0  0  0  0  0
   -3.7674   -0.0287    1.6667 O   0  0  0  0  0  0  0  0  0  0  0  0
   -5.2644   -1.8108   -0.0192 O   0  0  0  0  0  0  0  0  0  0  0  0
    1.6175   -1.3326    1.2178 Cl  0  0  0  0  0  0  0  0  0  0  0  0
    3.5287   -1.2427   -1.0201 Cl  0  0  0  0  0  0  0  0  0  0  0  0
    3.6336    0.8092    1.0888 Cl  0  0  0  0  0  0  0  0  0  0  0  0
   -1.7252   -0.0452   -1.4046 O   0  0  0  0  0  0  0  0  0  0  0  0
    0.7696    1.4285    0.2092 O   0  0  0  0  0  0  0  0  0  0  0  0
    0.6144   -0.2043   -1.3815 O   0  0  0  0  0  0  0  0  0  0  0  0
   -0.5023    0.6694   -1.6424 C   0  0  0  0  0  0  0  0  0  0  0  0
    2.5438   -0.2473    0.1156 C   0  0  0  0  0  0  0  0  0  0  0  0
   -1.3963   -0.6122    0.5830 H   0  0  0  0  0  0  0  0  0  0  0  0
   -0.3498    2.7776   -0.9788 H   0  0  0  0  0  0  0  0  0  0  0  0
   -0.4660    1.0768   -2.6527 H   0  0  0  0  0  0  0  0  0  0  0  0
   -1.4086    1.6610    1.3826 H   0  0  0  0  0  0  0  0  0  0  0  0
    2.1110    1.2552   -1.3844 H   0  0  0  0  0  0  0  0  0  0  0  0
   -4.1004    0.5274   -0.2950 H   0  0  0  0  0  0  0  0  0  0  0  0
   -3.5708   -1.7552   -1.2013 H   0  0  0  0  0  0  0  0  0  0  0  0
   -3.3228   -2.3227    0.4674 H   0  0  0  0  0  0  0  0  0  0  0  0
 13 20  1  0  0  0  0
 14 20  1  0  0  0  0
 15 20  1  0  0  0  0
  1 16  1  0  0  0  0
 16 19  1  0  0  0  0
  2 17  1  0  0  0  0
  4 17  1  0  0  0  0
 18 19  1  0  0  0  0
  4 18  1  0  0  0  0
  3 10  1  0  0  0  0
  5 11  1  0  0  0  0
  6 12  1  0  0  0  0
  1  3  1  0  0  0  0
  1  5  1  0  0  0  0
  1 21  1  0  0  0  0
  2 19  1  0  0  0  0
  2  3  1  0  0  0  0
  4 20  1  0  0  0  0
  5  6  1  0  0  0  0
  7 10  1  0  0  0  0
  8 11  1  0  0  0  0
  9 12  1  0  0  0  0
  2 22  1  0  0  0  0
 19 23  1  0  0  0  0
  3 24  1  0  0  0  0
  4 25  1  0  0  0  0
  5 26  1  0  0  0  0
  6 27  1  0  0  0  0
  6 28  1  0  0  0  0
M  END
$$$$
