C8H7Cl2NO2
APtclcactv12151716263D 0   0.00000     0.00000
 
 20 20  0  0  0  0  0  0  0  0999 V2000
    0.7282   -1.0917    0.0002 C   0  0  0  0  0  0  0  0  0  0  0  0
    2.1206    0.8595    0.0003 C   0  0  0  0  0  0  0  0  0  0  0  0
   -3.2367   -2.7636   -0.0001 C   0  0  0  0  0  0  0  0  0  0  0  0
    0.3547    3.6336    0.0001 H   0  0  0  0  0  0  0  0  0  0  0  0
    2.0258    3.4603   -0.0002 H   0  0  0  0  0  0  0  0  0  0  0  0
   -0.4100   -0.2814    0.0003 C   0  0  0  0  0  0  0  0  0  0  0  0
   -0.2716    1.1078    0.0002 C   0  0  0  0  0  0  0  0  0  0  0  0
    0.9960    1.6742    0.0000 C   0  0  0  0  0  0  0  0  0  0  0  0
    1.9836   -0.5180   -0.0001 C   0  0  0  0  0  0  0  0  0  0  0  0
   -2.7425   -0.1856   -0.0002 O   0  0  0  0  0  0  0  0  0  0  0  0
   -1.7544   -0.8922    0.0001 C   0  0  0  0  0  0  0  0  0  0  0  0
   -1.8851   -2.2330    0.0001 O   0  0  0  0  0  0  0  0  0  0  0  0
   -1.6795    2.1235   -0.0001 Cl  0  0  0  0  0  0  0  0  0  0  0  0
    3.3959   -1.5275   -0.0003 Cl  0  0  0  0  0  0  0  0  0  0  0  0
    1.1402    3.0646   -0.0000 N   0  0  0  0  0  0  0  0  0  0  0  0
    0.6258   -2.1668    0.0047 H   0  0  0  0  0  0  0  0  0  0  0  0
    3.1056    1.3023    0.0005 H   0  0  0  0  0  0  0  0  0  0  0  0
   -3.1994   -3.8530   -0.0001 H   0  0  0  0  0  0  0  0  0  0  0  0
   -3.7628   -2.4180    0.8897 H   0  0  0  0  0  0  0  0  0  0  0  0
   -3.7624   -2.4181   -0.8903 H   0  0  0  0  0  0  0  0  0  0  0  0
  6  7  2  0  0  0  0
  6 11  1  0  0  0  0
  1  6  1  0  0  0  0
  7  8  1  0  0  0  0
  7 13  1  0  0  0  0
 11 12  1  0  0  0  0
 10 11  2  0  0  0  0
  1  9  2  0  0  0  0
  2  8  2  0  0  0  0
  8 15  1  0  0  0  0
  3 12  1  0  0  0  0
  9 14  1  0  0  0  0
  2  9  1  0  0  0  0
  1 16  1  0  0  0  0
  2 17  1  0  0  0  0
  4 15  1  0  0  0  0
  5 15  1  0  0  0  0
  3 18  1  0  0  0  0
  3 19  1  0  0  0  0
  3 20  1  0  0  0  0
M  END
$$$$
