C8H9ClNO5PS
APtclcactv12151716293D 0   0.00000     0.00000
 
 26 26  0  0  0  0  0  0  0  0999 V2000
    0.6081    0.8128    0.7771 C   0  0  0  0  0  0  0  0  0  0  0  0
    0.2373   -1.5600    0.7607 C   0  0  0  0  0  0  0  0  0  0  0  0
    1.5411   -1.7592    0.3503 C   0  0  0  0  0  0  0  0  0  0  0  0
   -5.1933   -0.2804   -0.1169 C   0  0  0  0  0  0  0  0  0  0  0  0
   -1.3028    1.9108   -1.3349 C   0  0  0  0  0  0  0  0  0  0  0  0
   -0.2328   -0.2722    0.9753 C   0  0  0  0  0  0  0  0  0  0  0  0
    1.9126    0.6087    0.3663 C   0  0  0  0  0  0  0  0  0  0  0  0
    2.3784   -0.6766    0.1531 C   0  0  0  0  0  0  0  0  0  0  0  0
    4.5136    0.0598   -0.4597 O   0  0  0  0  0  0  0  0  0  0  0  0
   -1.5151   -0.0744    1.3794 O   0  0  0  0  0  0  0  0  0  0  0  0
   -4.0632   -0.0688    0.7318 O   0  0  0  0  0  0  0  0  0  0  0  0
   -2.3947    1.5604   -0.4823 O   0  0  0  0  0  0  0  0  0  0  0  0
    2.9661    1.9658    0.1172 Cl  0  0  0  0  0  0  0  0  0  0  0  0
    4.1862   -2.0242   -0.4740 O   0  5  0  0  0  0  0  0  0  0  0  0
   -2.5637    0.0982    0.1700 P   0  0  0  0  0  0  0  0  0  0  0  0
    3.7752   -0.8931   -0.2862 N   0  3  0  0  0  0  0  0  0  0  0  0
   -2.2373   -1.2012   -1.1253 S   0  0  0  0  0  0  0  0  0  0  0  0
    0.2431    1.8162    0.9392 H   0  0  0  0  0  0  0  0  0  0  0  0
   -0.4160   -2.4062    0.9141 H   0  0  0  0  0  0  0  0  0  0  0  0
   -6.0941   -0.3625    0.4912 H   0  0  0  0  0  0  0  0  0  0  0  0
   -5.2940    0.5597   -0.8040 H   0  0  0  0  0  0  0  0  0  0  0  0
   -5.0536   -1.1999   -0.6854 H   0  0  0  0  0  0  0  0  0  0  0  0
   -1.4065    2.9492   -1.6499 H   0  0  0  0  0  0  0  0  0  0  0  0
   -0.3649    1.7873   -0.7935 H   0  0  0  0  0  0  0  0  0  0  0  0
   -1.3042    1.2633   -2.2117 H   0  0  0  0  0  0  0  0  0  0  0  0
    1.9071   -2.7615    0.1837 H   0  0  0  0  0  0  0  0  0  0  0  0
 10 15  1  0  0  0  0
  6 10  1  0  0  0  0
 11 15  1  0  0  0  0
 12 15  1  0  0  0  0
 15 17  2  0  0  0  0
  1  6  2  0  0  0  0
  2  6  1  0  0  0  0
  4 11  1  0  0  0  0
  5 12  1  0  0  0  0
  1  7  1  0  0  0  0
  2  3  2  0  0  0  0
  7 13  1  0  0  0  0
  7  8  2  0  0  0  0
  3  8  1  0  0  0  0
  8 16  1  0  0  0  0
 14 16  1  0  0  0  0
  9 16  2  0  0  0  0
  1 18  1  0  0  0  0
  2 19  1  0  0  0  0
  4 20  1  0  0  0  0
  4 21  1  0  0  0  0
  4 22  1  0  0  0  0
  5 23  1  0  0  0  0
  5 24  1  0  0  0  0
  5 25  1  0  0  0  0
  3 26  1  0  0  0  0
M  CHG  2  14  -1  16   1
M  END
$$$$
