C13H11ClO
APtclcactv12071713253D 0   0.00000     0.00000
 
 26 27  0  0  0  0  0  0  0  0999 V2000
    2.1285    1.5398    0.4763 C   0  0  0  0  0  0  0  0  0  0  0  0
    2.7956   -0.7158    0.0290 C   0  0  0  0  0  0  0  0  0  0  0  0
    3.8139   -0.2535   -0.7835 C   0  0  0  0  0  0  0  0  0  0  0  0
    3.9899    1.1054   -0.9657 C   0  0  0  0  0  0  0  0  0  0  0  0
    3.1471    2.0021   -0.3359 C   0  0  0  0  0  0  0  0  0  0  0  0
   -1.7401   -1.9039   -0.7232 C   0  0  0  0  0  0  0  0  0  0  0  0
   -2.6920   -0.9053   -0.7899 C   0  0  0  0  0  0  0  0  0  0  0  0
   -1.3575    0.4685    0.6524 C   0  0  0  0  0  0  0  0  0  0  0  0
    0.8427   -0.3232    1.5446 C   0  0  0  0  0  0  0  0  0  0  0  0
    1.0255   -2.6410   -0.5842 H   0  0  0  0  0  0  0  0  0  0  0  0
    1.9528    0.1808    0.6588 C   0  0  0  0  0  0  0  0  0  0  0  0
   -0.5922   -1.7174    0.0335 C   0  0  0  0  0  0  0  0  0  0  0  0
   -2.5014    0.2806   -0.1026 C   0  0  0  0  0  0  0  0  0  0  0  0
   -0.4030   -0.5281    0.7216 C   0  0  0  0  0  0  0  0  0  0  0  0
    0.3454   -2.6991    0.1007 O   0  0  0  0  0  0  0  0  0  0  0  0
   -3.6990    1.5345   -0.1885 Cl  0  0  0  0  0  0  0  0  0  0  0  0
    1.4728    2.2404    0.9719 H   0  0  0  0  0  0  0  0  0  0  0  0
    2.6583   -1.7775    0.1716 H   0  0  0  0  0  0  0  0  0  0  0  0
    1.1396   -1.2697    1.9963 H   0  0  0  0  0  0  0  0  0  0  0  0
    0.6439    0.4071    2.3290 H   0  0  0  0  0  0  0  0  0  0  0  0
    4.4724   -0.9540   -1.2755 H   0  0  0  0  0  0  0  0  0  0  0  0
    4.7857    1.4666   -1.6002 H   0  0  0  0  0  0  0  0  0  0  0  0
    3.2841    3.0638   -0.4788 H   0  0  0  0  0  0  0  0  0  0  0  0
   -1.8913   -2.8310   -1.2561 H   0  0  0  0  0  0  0  0  0  0  0  0
   -3.5855   -1.0499   -1.3791 H   0  0  0  0  0  0  0  0  0  0  0  0
   -1.2105    1.3947    1.1881 H   0  0  0  0  0  0  0  0  0  0  0  0
  1 11  2  0  0  0  0
  2 11  1  0  0  0  0
  9 11  1  0  0  0  0
  1  5  1  0  0  0  0
  2  3  2  0  0  0  0
  9 14  1  0  0  0  0
  3  4  1  0  0  0  0
  4  5  2  0  0  0  0
  6  7  2  0  0  0  0
  6 12  1  0  0  0  0
  7 13  1  0  0  0  0
 12 14  2  0  0  0  0
 12 15  1  0  0  0  0
  8 13  2  0  0  0  0
 13 16  1  0  0  0  0
  8 14  1  0  0  0  0
  1 17  1  0  0  0  0
  2 18  1  0  0  0  0
  9 19  1  0  0  0  0
  9 20  1  0  0  0  0
  3 21  1  0  0  0  0
  4 22  1  0  0  0  0
  5 23  1  0  0  0  0
  6 24  1  0  0  0  0
  7 25  1  0  0  0  0
  8 26  1  0  0  0  0
 10 15  1  0  0  0  0
M  END
$$$$
