C10H6Cl8
APtclcactv12151716543D 0   0.00000     0.00000
 
 24 26  0  0  0  0  0  0  0  0999 V2000
    1.4899   -1.5837   -1.0606 C   0  0  0  0  0  0  0  0  0  0  0  0
    2.0253    0.6885   -0.4277 C   0  0  0  0  0  0  0  0  0  0  0  0
    2.6498   -0.5590   -1.0991 C   0  0  0  0  0  0  0  0  0  0  0  0
   -1.1912   -2.9310   -0.1721 Cl  0  0  0  0  0  0  0  0  0  0  0  0
    0.0514    2.4091    1.3006 Cl  0  0  0  0  0  0  0  0  0  0  0  0
    2.8999    2.1813   -0.9351 Cl  0  0  0  0  0  0  0  0  0  0  0  0
   -1.5199   -0.5352    2.3363 Cl  0  0  0  0  0  0  0  0  0  0  0  0
    1.3032   -0.9531    1.4416 Cl  0  0  0  0  0  0  0  0  0  0  0  0
   -3.5526   -0.7966   -1.4017 Cl  0  0  0  0  0  0  0  0  0  0  0  0
    4.0618   -1.1560   -0.1499 Cl  0  0  0  0  0  0  0  0  0  0  0  0
   -2.8095    2.3523   -0.5233 Cl  0  0  0  0  0  0  0  0  0  0  0  0
    0.2291   -0.7460   -1.3500 C   0  0  0  0  0  0  0  0  0  0  0  0
    0.5730    0.7139   -0.9429 C   0  0  0  0  0  0  0  0  0  0  0  0
   -2.0675   -0.2686   -0.6743 C   0  0  0  0  0  0  0  0  0  0  0  0
   -1.7749    0.9721   -0.3278 C   0  0  0  0  0  0  0  0  0  0  0  0
   -0.8719   -1.1630   -0.3245 C   0  0  0  0  0  0  0  0  0  0  0  0
   -0.3650    0.9857    0.2754 C   0  0  0  0  0  0  0  0  0  0  0  0
   -0.3543   -0.4273    0.9650 C   0  0  0  0  0  0  0  0  0  0  0  0
   -0.1084   -0.8260   -2.3833 H   0  0  0  0  0  0  0  0  0  0  0  0
    0.4211    1.4240   -1.7557 H   0  0  0  0  0  0  0  0  0  0  0  0
    1.6273   -2.3434   -1.8301 H   0  0  0  0  0  0  0  0  0  0  0  0
    1.4224   -2.0457   -0.0757 H   0  0  0  0  0  0  0  0  0  0  0  0
    2.0427    0.5882    0.6575 H   0  0  0  0  0  0  0  0  0  0  0  0
    2.9408   -0.3431   -2.1271 H   0  0  0  0  0  0  0  0  0  0  0  0
 12 13  1  0  0  0  0
 12 16  1  0  0  0  0
  1 12  1  0  0  0  0
 13 17  1  0  0  0  0
  2 13  1  0  0  0  0
 16 18  1  0  0  0  0
 14 16  1  0  0  0  0
  4 16  1  0  0  0  0
  1  3  1  0  0  0  0
 15 17  1  0  0  0  0
  5 17  1  0  0  0  0
  2  6  1  0  0  0  0
  7 18  1  0  0  0  0
  8 18  1  0  0  0  0
  9 14  1  0  0  0  0
  3 10  1  0  0  0  0
 11 15  1  0  0  0  0
 17 18  1  0  0  0  0
  2  3  1  0  0  0  0
 14 15  2  0  0  0  0
 12 19  1  0  0  0  0
 13 20  1  0  0  0  0
  1 21  1  0  0  0  0
  1 22  1  0  0  0  0
  2 23  1  0  0  0  0
  3 24  1  0  0  0  0
M  END
$$$$
