CHClF2
APtclcactv12101715313D 0   0.00000     0.00000
 
  5  4  0  0  0  0  0  0  0  0999 V2000
   -1.3022   -0.0000    0.0445 Cl  0  0  0  0  0  0  0  0  0  0  0  0
    0.4452   -0.0000   -0.3999 C   0  0  0  0  0  0  0  0  0  0  0  0
    1.0597    1.1423    0.1243 F   0  0  0  0  0  0  0  0  0  0  0  0
    1.0597   -1.1423    0.1243 F   0  0  0  0  0  0  0  0  0  0  0  0
    0.5440    0.0000   -1.4854 H   0  0  0  0  0  0  0  0  0  0  0  0
  1  2  1  0  0  0  0
  2  3  1  0  0  0  0
  2  4  1  0  0  0  0
  2  5  1  0  0  0  0
M  END
$$$$
