C3H7Cl
APtclcactv12101715383D 0   0.00000     0.00000
 
 11 10  0  0  0  0  0  0  0  0999 V2000
   -1.5757    0.0808   -0.0000 Cl  0  0  0  0  0  0  0  0  0  0  0  0
    0.0875   -0.6152    0.0000 C   0  0  0  0  0  0  0  0  0  0  0  0
    1.1149    0.5185    0.0000 C   0  0  0  0  0  0  0  0  0  0  0  0
    2.5263   -0.0722   -0.0000 C   0  0  0  0  0  0  0  0  0  0  0  0
    0.2243   -1.2295    0.8900 H   0  0  0  0  0  0  0  0  0  0  0  0
    0.2243   -1.2295   -0.8900 H   0  0  0  0  0  0  0  0  0  0  0  0
    0.9781    1.1328   -0.8900 H   0  0  0  0  0  0  0  0  0  0  0  0
    0.9781    1.1328    0.8900 H   0  0  0  0  0  0  0  0  0  0  0  0
    2.6631   -0.6864    0.8900 H   0  0  0  0  0  0  0  0  0  0  0  0
    2.6631   -0.6864   -0.8900 H   0  0  0  0  0  0  0  0  0  0  0  0
    3.2582    0.7356   -0.0000 H   0  0  0  0  0  0  0  0  0  0  0  0
  1  2  1  0  0  0  0
  2  3  1  0  0  0  0
  3  4  1  0  0  0  0
  2  5  1  0  0  0  0
  2  6  1  0  0  0  0
  3  7  1  0  0  0  0
  3  8  1  0  0  0  0
  4  9  1  0  0  0  0
  4 10  1  0  0  0  0
  4 11  1  0  0  0  0
M  END
$$$$
