C10H13ClN2O
APtclcactv12211717243D 0   0.00000     0.00000
 
 27 27  0  0  0  0  0  0  0  0999 V2000
   -0.9518   -0.8787    0.0818 C   0  0  0  0  0  0  0  0  0  0  0  0
   -1.3918    1.8456    0.3218 C   0  0  0  0  0  0  0  0  0  0  0  0
   -0.1084    1.3459    0.4235 C   0  0  0  0  0  0  0  0  0  0  0  0
   -3.8533    1.5368   -0.0082 C   0  0  0  0  0  0  0  0  0  0  0  0
    4.8280    0.4253   -0.5770 C   0  0  0  0  0  0  0  0  0  0  0  0
    3.9120   -1.6935    0.4768 C   0  0  0  0  0  0  0  0  0  0  0  0
    1.5671   -1.3920    0.8199 H   0  0  0  0  0  0  0  0  0  0  0  0
   -2.2346   -0.3730   -0.0182 C   0  0  0  0  0  0  0  0  0  0  0  0
   -2.4541    0.9880    0.1017 C   0  0  0  0  0  0  0  0  0  0  0  0
    0.1158   -0.0195    0.3032 C   0  0  0  0  0  0  0  0  0  0  0  0
    2.2776    1.2998   -0.5159 O   0  0  0  0  0  0  0  0  0  0  0  0
    2.4567    0.1820   -0.0722 C   0  0  0  0  0  0  0  0  0  0  0  0
   -3.5710   -1.4460   -0.2951 Cl  0  0  0  0  0  0  0  0  0  0  0  0
    1.4155   -0.5282    0.4054 N   0  0  0  0  0  0  0  0  0  0  0  0
    3.6963   -0.3468   -0.0579 N   0  0  0  0  0  0  0  0  0  0  0  0
   -0.7811   -1.9414   -0.0078 H   0  0  0  0  0  0  0  0  0  0  0  0
   -1.5662    2.9073    0.4151 H   0  0  0  0  0  0  0  0  0  0  0  0
   -4.3131    1.5599    0.9798 H   0  0  0  0  0  0  0  0  0  0  0  0
   -3.8164    2.5471   -0.4155 H   0  0  0  0  0  0  0  0  0  0  0  0
   -4.4424    0.9002   -0.6683 H   0  0  0  0  0  0  0  0  0  0  0  0
    0.7206    2.0166    0.5951 H   0  0  0  0  0  0  0  0  0  0  0  0
    5.2670    1.0132    0.2291 H   0  0  0  0  0  0  0  0  0  0  0  0
    5.5778   -0.2554   -0.9802 H   0  0  0  0  0  0  0  0  0  0  0  0
    4.4812    1.0925   -1.3661 H   0  0  0  0  0  0  0  0  0  0  0  0
    3.8072   -2.4240   -0.3254 H   0  0  0  0  0  0  0  0  0  0  0  0
    4.9143   -1.7601    0.9001 H   0  0  0  0  0  0  0  0  0  0  0  0
    3.1752   -1.8985    1.2534 H   0  0  0  0  0  0  0  0  0  0  0  0
  8  9  2  0  0  0  0
  1  8  1  0  0  0  0
  8 13  1  0  0  0  0
  2  9  1  0  0  0  0
  4  9  1  0  0  0  0
  1 10  2  0  0  0  0
  2  3  2  0  0  0  0
 10 14  1  0  0  0  0
 12 14  1  0  0  0  0
 12 15  1  0  0  0  0
 11 12  2  0  0  0  0
  5 15  1  0  0  0  0
  6 15  1  0  0  0  0
  3 10  1  0  0  0  0
  1 16  1  0  0  0  0
  2 17  1  0  0  0  0
  4 18  1  0  0  0  0
  4 19  1  0  0  0  0
  4 20  1  0  0  0  0
  3 21  1  0  0  0  0
  7 14  1  0  0  0  0
  5 22  1  0  0  0  0
  5 23  1  0  0  0  0
  5 24  1  0  0  0  0
  6 25  1  0  0  0  0
  6 26  1  0  0  0  0
  6 27  1  0  0  0  0
M  END
$$$$
