C12H14Cl3O4P
APtclcactv12111704593D 0   0.00000     0.00000
 
 34 34  0  0  0  0  0  0  0  0999 V2000
    1.7412   -0.9714    1.2224 C   0  0  0  0  0  0  0  0  0  0  0  0
    3.2775    0.4233   -0.6208 C   0  0  0  0  0  0  0  0  0  0  0  0
    3.0011   -0.5277    1.5667 C   0  0  0  0  0  0  0  0  0  0  0  0
   -3.4257   -0.7577    1.2557 C   0  0  0  0  0  0  0  0  0  0  0  0
   -3.0239    2.9728    0.2175 C   0  0  0  0  0  0  0  0  0  0  0  0
   -3.8643   -1.3245    2.6075 C   0  0  0  0  0  0  0  0  0  0  0  0
   -3.9546    3.7527   -0.7134 C   0  0  0  0  0  0  0  0  0  0  0  0
    1.2399   -0.7179   -0.0546 C   0  0  0  0  0  0  0  0  0  0  0  0
    2.0175   -0.0159   -0.9771 C   0  0  0  0  0  0  0  0  0  0  0  0
    3.7685    0.1687    0.6480 C   0  0  0  0  0  0  0  0  0  0  0  0
   -0.3162    1.4965    0.7253 O   0  0  0  0  0  0  0  0  0  0  0  0
   -0.1108   -1.1917   -0.4298 C   0  0  0  0  0  0  0  0  0  0  0  0
   -1.0391   -0.3086   -0.8841 O   0  0  0  0  0  0  0  0  0  0  0  0
   -2.2436    0.0263    1.4288 O   0  0  0  0  0  0  0  0  0  0  0  0
   -2.5158    1.8264   -0.4680 O   0  0  0  0  0  0  0  0  0  0  0  0
   -1.9442   -3.0654   -0.9085 Cl  0  0  0  0  0  0  0  0  0  0  0  0
    1.4020    0.3049   -2.5683 Cl  0  0  0  0  0  0  0  0  0  0  0  0
    5.3532    0.7237    1.0892 Cl  0  0  0  0  0  0  0  0  0  0  0  0
   -0.4171   -2.4838   -0.3224 C   0  0  0  0  0  0  0  0  0  0  0  0
   -1.5026    0.7760    0.2118 P   0  0  0  0  0  0  0  0  0  0  0  0
   -3.2205   -1.5775    0.5673 H   0  0  0  0  0  0  0  0  0  0  0  0
   -4.2203   -0.1320    0.8491 H   0  0  0  0  0  0  0  0  0  0  0  0
   -2.1946    3.6118    0.5209 H   0  0  0  0  0  0  0  0  0  0  0  0
   -3.5776    2.6526    1.1000 H   0  0  0  0  0  0  0  0  0  0  0  0
    0.2845   -3.1693    0.1293 H   0  0  0  0  0  0  0  0  0  0  0  0
   -4.0695   -0.5047    3.2959 H   0  0  0  0  0  0  0  0  0  0  0  0
   -4.7660   -1.9224    2.4755 H   0  0  0  0  0  0  0  0  0  0  0  0
   -3.0697   -1.9501    3.0142 H   0  0  0  0  0  0  0  0  0  0  0  0
   -4.3421    4.6271   -0.1906 H   0  0  0  0  0  0  0  0  0  0  0  0
   -3.4008    4.0728   -1.5960 H   0  0  0  0  0  0  0  0  0  0  0  0
   -4.7838    3.1137   -1.0168 H   0  0  0  0  0  0  0  0  0  0  0  0
    1.1457   -1.5179    1.9387 H   0  0  0  0  0  0  0  0  0  0  0  0
    3.8805    0.9666   -1.3333 H   0  0  0  0  0  0  0  0  0  0  0  0
    3.3898   -0.7236    2.5551 H   0  0  0  0  0  0  0  0  0  0  0  0
 13 20  1  0  0  0  0
 14 20  1  0  0  0  0
 15 20  1  0  0  0  0
 11 20  2  0  0  0  0
 12 13  1  0  0  0  0
  4 14  1  0  0  0  0
  5 15  1  0  0  0  0
  8 12  1  0  0  0  0
 12 19  2  0  0  0  0
  4  6  1  0  0  0  0
  5  7  1  0  0  0  0
  8  9  2  0  0  0  0
  1  8  1  0  0  0  0
 16 19  1  0  0  0  0
  2  9  1  0  0  0  0
  9 17  1  0  0  0  0
  1  3  2  0  0  0  0
  2 10  2  0  0  0  0
 10 18  1  0  0  0  0
  3 10  1  0  0  0  0
  4 21  1  0  0  0  0
  4 22  1  0  0  0  0
  5 23  1  0  0  0  0
  5 24  1  0  0  0  0
 19 25  1  0  0  0  0
  6 26  1  0  0  0  0
  6 27  1  0  0  0  0
  6 28  1  0  0  0  0
  7 29  1  0  0  0  0
  7 30  1  0  0  0  0
  7 31  1  0  0  0  0
  1 32  1  0  0  0  0
  2 33  1  0  0  0  0
  3 34  1  0  0  0  0
M  END
$$$$
