C5H12ClO2PS2
APtclcactv12211716463D 0   0.00000     0.00000
 
 23 22  0  0  0  0  0  0  0  0999 V2000
    1.7380   -1.9115    0.2548 C   0  0  0  0  0  0  0  0  0  0  0  0
   -2.7331    0.8798    0.4165 C   0  0  0  0  0  0  0  0  0  0  0  0
    0.7679    2.2387   -0.3914 C   0  0  0  0  0  0  0  0  0  0  0  0
    2.7811   -2.1871    1.3397 C   0  0  0  0  0  0  0  0  0  0  0  0
   -3.6025    1.3021    1.6026 C   0  0  0  0  0  0  0  0  0  0  0  0
    0.7282   -1.0442    0.7744 O   0  0  0  0  0  0  0  0  0  0  0  0
   -1.6478    0.0762    0.8837 O   0  0  0  0  0  0  0  0  0  0  0  0
    2.3727    1.7262    0.2510 Cl  0  0  0  0  0  0  0  0  0  0  0  0
   -0.5305   -0.5437   -0.0959 P   0  0  0  0  0  0  0  0  0  0  0  0
    0.1056    0.9396   -1.4704 S   0  0  0  0  0  0  0  0  0  0  0  0
   -1.2535   -1.9859   -1.0287 S   0  0  0  0  0  0  0  0  0  0  0  0
    2.2197   -1.4372   -0.6002 H   0  0  0  0  0  0  0  0  0  0  0  0
    1.2835   -2.8511   -0.0593 H   0  0  0  0  0  0  0  0  0  0  0  0
   -3.3340    0.3048   -0.2880 H   0  0  0  0  0  0  0  0  0  0  0  0
   -2.3406    1.7671   -0.0804 H   0  0  0  0  0  0  0  0  0  0  0  0
    0.0813    2.4069    0.4383 H   0  0  0  0  0  0  0  0  0  0  0  0
    0.8822    3.1610   -0.9610 H   0  0  0  0  0  0  0  0  0  0  0  0
    3.5514   -2.8487    0.9434 H   0  0  0  0  0  0  0  0  0  0  0  0
    3.2356   -1.2475    1.6538 H   0  0  0  0  0  0  0  0  0  0  0  0
    2.2995   -2.6615    2.1947 H   0  0  0  0  0  0  0  0  0  0  0  0
   -3.9950    0.4148    2.0994 H   0  0  0  0  0  0  0  0  0  0  0  0
   -3.0016    1.8771    2.3070 H   0  0  0  0  0  0  0  0  0  0  0  0
   -4.4304    1.9151    1.2462 H   0  0  0  0  0  0  0  0  0  0  0  0
  6  9  1  0  0  0  0
  1  6  1  0  0  0  0
  7  9  1  0  0  0  0
  9 10  1  0  0  0  0
  9 11  2  0  0  0  0
  2  7  1  0  0  0  0
  3 10  1  0  0  0  0
  1  4  1  0  0  0  0
  2  5  1  0  0  0  0
  3  8  1  0  0  0  0
  1 12  1  0  0  0  0
  1 13  1  0  0  0  0
  2 14  1  0  0  0  0
  2 15  1  0  0  0  0
  3 16  1  0  0  0  0
  3 17  1  0  0  0  0
  4 18  1  0  0  0  0
  4 19  1  0  0  0  0
  4 20  1  0  0  0  0
  5 21  1  0  0  0  0
  5 22  1  0  0  0  0
  5 23  1  0  0  0  0
M  END
$$$$
