C10H13ClN2O3S
APtclcactv12211717243D 0   0.00000     0.00000
 
 30 30  0  0  0  0  0  0  0  0999 V2000
    2.0626    0.7532   -1.0733 C   0  0  0  0  0  0  0  0  0  0  0  0
    1.3846   -0.0217    1.0888 C   0  0  0  0  0  0  0  0  0  0  0  0
    3.0495   -0.2137   -1.1111 C   0  0  0  0  0  0  0  0  0  0  0  0
    2.3709   -0.9892    1.0520 C   0  0  0  0  0  0  0  0  0  0  0  0
   -3.7757   -1.2845    0.1361 C   0  0  0  0  0  0  0  0  0  0  0  0
   -5.0001   -1.7049   -0.6794 C   0  0  0  0  0  0  0  0  0  0  0  0
   -5.6941   -2.8804    0.0116 C   0  0  0  0  0  0  0  0  0  0  0  0
   -1.7490    1.7734   -1.4204 H   0  0  0  0  0  0  0  0  0  0  0  0
   -3.4696    0.1970   -1.3536 H   0  0  0  0  0  0  0  0  0  0  0  0
    1.2301    0.8490    0.0262 C   0  0  0  0  0  0  0  0  0  0  0  0
    3.2043   -1.0857   -0.0481 C   0  0  0  0  0  0  0  0  0  0  0  0
   -0.3197    2.3048    1.4463 O   0  0  0  0  0  0  0  0  0  0  0  0
    0.3883    3.1139   -0.8102 O   0  0  0  0  0  0  0  0  0  0  0  0
   -1.5529   -0.0644    1.0544 O   0  0  0  0  0  0  0  0  0  0  0  0
   -2.0020    0.3818    0.0164 C   0  0  0  0  0  0  0  0  0  0  0  0
    4.4433   -2.3007   -0.0951 Cl  0  0  0  0  0  0  0  0  0  0  0  0
   -1.3907    1.4173   -0.5923 N   0  0  0  0  0  0  0  0  0  0  0  0
   -3.1112   -0.1590   -0.5255 N   0  0  0  0  0  0  0  0  0  0  0  0
   -0.0279    2.0818    0.0736 S   0  0  0  0  0  0  0  0  0  0  0  0
    1.9446    1.4368   -1.9010 H   0  0  0  0  0  0  0  0  0  0  0  0
    0.7340    0.0537    1.9475 H   0  0  0  0  0  0  0  0  0  0  0  0
    3.6995   -0.2887   -1.9703 H   0  0  0  0  0  0  0  0  0  0  0  0
    2.4917   -1.6692    1.8824 H   0  0  0  0  0  0  0  0  0  0  0  0
   -4.0905   -0.9842    1.1355 H   0  0  0  0  0  0  0  0  0  0  0  0
   -3.0831   -2.1229    0.2100 H   0  0  0  0  0  0  0  0  0  0  0  0
   -5.6928   -0.8665   -0.7533 H   0  0  0  0  0  0  0  0  0  0  0  0
   -4.6853   -2.0053   -1.6788 H   0  0  0  0  0  0  0  0  0  0  0  0
   -6.5664   -3.1799   -0.5694 H   0  0  0  0  0  0  0  0  0  0  0  0
   -5.0014   -3.7188    0.0855 H   0  0  0  0  0  0  0  0  0  0  0  0
   -6.0089   -2.5800    1.0110 H   0  0  0  0  0  0  0  0  0  0  0  0
 10 19  1  0  0  0  0
  1 10  2  0  0  0  0
  2 10  1  0  0  0  0
 17 19  1  0  0  0  0
 12 19  2  0  0  0  0
 13 19  2  0  0  0  0
  1  3  1  0  0  0  0
  2  4  2  0  0  0  0
 15 17  1  0  0  0  0
  3 11  2  0  0  0  0
 15 18  1  0  0  0  0
 14 15  2  0  0  0  0
 11 16  1  0  0  0  0
  5 18  1  0  0  0  0
  5  6  1  0  0  0  0
  6  7  1  0  0  0  0
  4 11  1  0  0  0  0
  1 20  1  0  0  0  0
  2 21  1  0  0  0  0
  8 17  1  0  0  0  0
  3 22  1  0  0  0  0
  4 23  1  0  0  0  0
  9 18  1  0  0  0  0
  5 24  1  0  0  0  0
  5 25  1  0  0  0  0
  6 26  1  0  0  0  0
  6 27  1  0  0  0  0
  7 28  1  0  0  0  0
  7 29  1  0  0  0  0
  7 30  1  0  0  0  0
M  END
$$$$
