C16H11NO2
APtclcactv12211717103D 0   0.00000     0.00000
 
 30 32  0  0  0  0  0  0  0  0999 V2000
    3.2775    0.4185    0.0292 C   0  0  0  0  0  0  0  0  0  0  0  0
    1.6894    2.7133    0.1801 C   0  0  0  0  0  0  0  0  0  0  0  0
   -0.1533   -1.0386   -0.0704 C   0  0  0  0  0  0  0  0  0  0  0  0
    3.8415    1.6571    0.1114 C   0  0  0  0  0  0  0  0  0  0  0  0
    3.0475    2.7996    0.1867 C   0  0  0  0  0  0  0  0  0  0  0  0
   -3.0678    1.0845   -0.7081 C   0  0  0  0  0  0  0  0  0  0  0  0
   -3.0203   -0.8605    0.7165 C   0  0  0  0  0  0  0  0  0  0  0  0
   -4.4472    1.0432   -0.7082 C   0  0  0  0  0  0  0  0  0  0  0  0
   -4.4000   -0.8919    0.7092 C   0  0  0  0  0  0  0  0  0  0  0  0
   -5.1123    0.0577   -0.0010 C   0  0  0  0  0  0  0  0  0  0  0  0
    1.2348   -1.0154   -0.0675 C   0  0  0  0  0  0  0  0  0  0  0  0
   -0.8623    0.1693    0.0098 C   0  0  0  0  0  0  0  0  0  0  0  0
   -2.3447    0.1305    0.0061 C   0  0  0  0  0  0  0  0  0  0  0  0
    3.2341   -2.2089   -0.2488 O   0  0  0  0  0  0  0  0  0  0  0  0
    1.4034   -3.4566   -0.1149 O   0  0  0  0  0  0  0  0  0  0  0  0
    2.0247   -2.2618   -0.1498 C   0  0  0  0  0  0  0  0  0  0  0  0
    1.9621   -4.2438   -0.1718 H   0  0  0  0  0  0  0  0  0  0  0  0
    1.8841    0.2928    0.0199 C   0  0  0  0  0  0  0  0  0  0  0  0
    1.0708    1.4518    0.0958 C   0  0  0  0  0  0  0  0  0  0  0  0
   -0.2577    1.3359    0.0872 N   0  0  0  0  0  0  0  0  0  0  0  0
    3.9027   -0.4600   -0.0328 H   0  0  0  0  0  0  0  0  0  0  0  0
    1.0888    3.6089    0.2391 H   0  0  0  0  0  0  0  0  0  0  0  0
   -0.6825   -1.9779   -0.1336 H   0  0  0  0  0  0  0  0  0  0  0  0
    4.9171    1.7538    0.1186 H   0  0  0  0  0  0  0  0  0  0  0  0
    3.5176    3.7697    0.2511 H   0  0  0  0  0  0  0  0  0  0  0  0
   -2.5495    1.8519   -1.2638 H   0  0  0  0  0  0  0  0  0  0  0  0
   -2.4652   -1.6020    1.2719 H   0  0  0  0  0  0  0  0  0  0  0  0
   -5.0085    1.7818   -1.2612 H   0  0  0  0  0  0  0  0  0  0  0  0
   -4.9245   -1.6592    1.2592 H   0  0  0  0  0  0  0  0  0  0  0  0
   -6.1920    0.0297   -0.0033 H   0  0  0  0  0  0  0  0  0  0  0  0
 18 19  1  0  0  0  0
 11 18  2  0  0  0  0
  1 18  1  0  0  0  0
 19 20  2  0  0  0  0
  2 19  1  0  0  0  0
  3 11  1  0  0  0  0
 11 16  1  0  0  0  0
  1  4  2  0  0  0  0
 12 20  1  0  0  0  0
  2  5  2  0  0  0  0
 15 16  1  0  0  0  0
 14 16  2  0  0  0  0
 12 13  1  0  0  0  0
  6 13  1  0  0  0  0
  7 13  2  0  0  0  0
  6  8  2  0  0  0  0
  7  9  1  0  0  0  0
  8 10  1  0  0  0  0
  3 12  2  0  0  0  0
  4  5  1  0  0  0  0
  9 10  2  0  0  0  0
  1 21  1  0  0  0  0
  2 22  1  0  0  0  0
  3 23  1  0  0  0  0
  4 24  1  0  0  0  0
  5 25  1  0  0  0  0
 15 17  1  0  0  0  0
  6 26  1  0  0  0  0
  7 27  1  0  0  0  0
  8 28  1  0  0  0  0
  9 29  1  0  0  0  0
 10 30  1  0  0  0  0
M  END
$$$$
