C16H15NO2
APtclcactv12211717113D 0   0.00000     0.00000
 
 34 35  0  0  0  0  0  0  0  0999 V2000
   -1.9829    0.7798    0.1108 C   0  0  0  0  0  0  0  0  0  0  0  0
   -3.1181   -0.1482   -0.0295 C   0  0  0  0  0  0  0  0  0  0  0  0
   -4.4352    0.3391   -0.0147 C   0  0  0  0  0  0  0  0  0  0  0  0
   -4.6748    1.6987    0.1325 N   0  0  0  0  0  0  0  0  0  0  0  0
   -5.4970   -0.5467   -0.1484 C   0  0  0  0  0  0  0  0  0  0  0  0
   -5.2562   -1.8975   -0.2950 C   0  0  0  0  0  0  0  0  0  0  0  0
   -3.9578   -2.3816   -0.3100 C   0  0  0  0  0  0  0  0  0  0  0  0
   -2.8914   -1.5186   -0.1841 C   0  0  0  0  0  0  0  0  0  0  0  0
   -2.1781    1.9789    0.1375 O   0  0  0  0  0  0  0  0  0  0  0  0
   -0.7283    0.2988    0.2151 O   0  0  0  0  0  0  0  0  0  0  0  0
    0.3414    1.2712    0.3506 C   0  0  0  0  0  0  0  0  0  0  0  0
    1.6626    0.5536    0.4534 C   0  0  0  0  0  0  0  0  0  0  0  0
    2.7040    0.9786   -0.2482 C   0  0  0  0  0  0  0  0  0  0  0  0
    3.9999    0.2747   -0.1474 C   0  0  0  0  0  0  0  0  0  0  0  0
    5.0979    0.7195   -0.8846 C   0  0  0  0  0  0  0  0  0  0  0  0
    6.3048    0.0581   -0.7861 C   0  0  0  0  0  0  0  0  0  0  0  0
    6.4274   -1.0441    0.0410 C   0  0  0  0  0  0  0  0  0  0  0  0
    5.3424   -1.4904    0.7742 C   0  0  0  0  0  0  0  0  0  0  0  0
    4.1318   -0.8338    0.6897 C   0  0  0  0  0  0  0  0  0  0  0  0
   -3.9329    2.3235    0.1434 H   0  0  0  0  0  0  0  0  0  0  0  0
   -5.5841    2.0238    0.2243 H   0  0  0  0  0  0  0  0  0  0  0  0
   -6.5119   -0.1777   -0.1373 H   0  0  0  0  0  0  0  0  0  0  0  0
   -6.0852   -2.5821   -0.3982 H   0  0  0  0  0  0  0  0  0  0  0  0
   -3.7808   -3.4408   -0.4253 H   0  0  0  0  0  0  0  0  0  0  0  0
   -1.8816   -1.9015   -0.1965 H   0  0  0  0  0  0  0  0  0  0  0  0
    0.3501    1.9256   -0.5211 H   0  0  0  0  0  0  0  0  0  0  0  0
    0.1800    1.8659    1.2497 H   0  0  0  0  0  0  0  0  0  0  0  0
    1.7610   -0.3068    1.0987 H   0  0  0  0  0  0  0  0  0  0  0  0
    2.6055    1.8390   -0.8935 H   0  0  0  0  0  0  0  0  0  0  0  0
    5.0033    1.5794   -1.5312 H   0  0  0  0  0  0  0  0  0  0  0  0
    7.1554    0.4013   -1.3562 H   0  0  0  0  0  0  0  0  0  0  0  0
    7.3741   -1.5586    0.1143 H   0  0  0  0  0  0  0  0  0  0  0  0
    5.4445   -2.3516    1.4178 H   0  0  0  0  0  0  0  0  0  0  0  0
    3.2857   -1.1829    1.2628 H   0  0  0  0  0  0  0  0  0  0  0  0
  1  2  1  0  0  0  0
  2  3  1  0  0  0  0
  3  4  1  0  0  0  0
  3  5  2  0  0  0  0
  5  6  1  0  0  0  0
  6  7  2  0  0  0  0
  7  8  1  0  0  0  0
  2  8  2  0  0  0  0
  1  9  2  0  0  0  0
  1 10  1  0  0  0  0
 10 11  1  0  0  0  0
 11 12  1  0  0  0  0
 12 13  2  0  0  0  0
 13 14  1  0  0  0  0
 14 15  2  0  0  0  0
 15 16  1  0  0  0  0
 16 17  2  0  0  0  0
 17 18  1  0  0  0  0
 18 19  2  0  0  0  0
 14 19  1  0  0  0  0
  4 20  1  0  0  0  0
  4 21  1  0  0  0  0
  5 22  1  0  0  0  0
  6 23  1  0  0  0  0
  7 24  1  0  0  0  0
  8 25  1  0  0  0  0
 11 26  1  0  0  0  0
 11 27  1  0  0  0  0
 12 28  1  0  0  0  0
 13 29  1  0  0  0  0
 15 30  1  0  0  0  0
 16 31  1  0  0  0  0
 17 32  1  0  0  0  0
 18 33  1  0  0  0  0
 19 34  1  0  0  0  0
M  END
$$$$
