C9H8O2
APtclcactv12151716433D 0   0.00000     0.00000
 
 19 19  0  0  0  0  0  0  0  0999 V2000
    2.8692   -0.0231   -0.0015 C   0  0  0  0  0  0  0  0  0  0  0  0
    1.4471   -0.3639   -0.0007 C   0  0  0  0  0  0  0  0  0  0  0  0
    0.5188    0.6152   -0.0002 C   0  0  0  0  0  0  0  0  0  0  0  0
   -0.9124    0.2723    0.0005 C   0  0  0  0  0  0  0  0  0  0  0  0
   -1.8777    1.2843    0.0010 C   0  0  0  0  0  0  0  0  0  0  0  0
   -3.2166    0.9549    0.0012 C   0  0  0  0  0  0  0  0  0  0  0  0
   -3.6063   -0.3732    0.0010 C   0  0  0  0  0  0  0  0  0  0  0  0
   -2.6571   -1.3805    0.0010 C   0  0  0  0  0  0  0  0  0  0  0  0
   -1.3142   -1.0673   -0.0051 C   0  0  0  0  0  0  0  0  0  0  0  0
    3.2151    1.1429   -0.0017 O   0  0  0  0  0  0  0  0  0  0  0  0
    3.7973   -1.0021    0.0037 O   0  0  0  0  0  0  0  0  0  0  0  0
    1.1399   -1.3993   -0.0005 H   0  0  0  0  0  0  0  0  0  0  0  0
    0.8260    1.6506   -0.0004 H   0  0  0  0  0  0  0  0  0  0  0  0
   -1.5752    2.3211    0.0015 H   0  0  0  0  0  0  0  0  0  0  0  0
   -3.9632    1.7352    0.0020 H   0  0  0  0  0  0  0  0  0  0  0  0
   -4.6565   -0.6248    0.0012 H   0  0  0  0  0  0  0  0  0  0  0  0
   -2.9690   -2.4144    0.0011 H   0  0  0  0  0  0  0  0  0  0  0  0
   -0.5747   -1.8544   -0.0055 H   0  0  0  0  0  0  0  0  0  0  0  0
    4.7090   -0.6797    0.0027 H   0  0  0  0  0  0  0  0  0  0  0  0
  1  2  1  0  0  0  0
  2  3  2  0  0  0  0
  3  4  1  0  0  0  0
  4  5  2  0  0  0  0
  5  6  1  0  0  0  0
  6  7  2  0  0  0  0
  7  8  1  0  0  0  0
  8  9  2  0  0  0  0
  4  9  1  0  0  0  0
  1 10  2  0  0  0  0
  1 11  1  0  0  0  0
  2 12  1  0  0  0  0
  3 13  1  0  0  0  0
  5 14  1  0  0  0  0
  6 15  1  0  0  0  0
  7 16  1  0  0  0  0
  8 17  1  0  0  0  0
  9 18  1  0  0  0  0
 11 19  1  0  0  0  0
M  END
$$$$
