C10H16O3
APtclcactv12211717283D 0   0.00000     0.00000
 
 29 29  0  0  1  0  0  0  0  0999 V2000
   -0.6332    0.1305   -0.5483 C   0  0  2  0  0  0  0  0  0  0  0  0
    1.4272   -0.3523   -0.6512 C   0  0  2  0  0  0  0  0  0  0  0  0
   -1.7402    0.4606    0.4550 C   0  0  0  0  0  0  0  0  0  0  0  0
    0.8651    2.0494   -1.3628 C   0  0  0  0  0  0  0  0  0  0  0  0
    0.8406    1.4240    1.1086 C   0  0  0  0  0  0  0  0  0  0  0  0
    3.8306   -1.3131   -0.3139 C   0  0  0  0  0  0  0  0  0  0  0  0
   -3.0014   -1.0127   -0.8831 O   0  0  0  0  0  0  0  0  0  0  0  0
    2.6488   -0.1389    1.3516 O   0  0  0  0  0  0  0  0  0  0  0  0
    0.1816   -1.1198   -0.1773 C   0  0  0  0  0  0  0  0  0  0  0  0
   -4.1025   -0.1522    0.8288 O   0  0  0  0  0  0  0  0  0  0  0  0
   -2.9940   -0.2888    0.0843 C   0  0  0  0  0  0  0  0  0  0  0  0
    2.6365   -0.5661    0.2222 C   0  0  0  0  0  0  0  0  0  0  0  0
   -4.8819   -0.6529    0.5516 H   0  0  0  0  0  0  0  0  0  0  0  0
    0.6565    0.9393   -0.3308 C   0  0  0  0  0  0  0  0  0  0  0  0
   -1.4233    0.1662    1.4555 H   0  0  0  0  0  0  0  0  0  0  0  0
   -1.9388    1.5322    0.4373 H   0  0  0  0  0  0  0  0  0  0  0  0
   -0.9826    0.1351   -1.5808 H   0  0  0  0  0  0  0  0  0  0  0  0
    0.1837   -1.3386    0.8905 H   0  0  0  0  0  0  0  0  0  0  0  0
   -0.0531   -1.9912   -0.7885 H   0  0  0  0  0  0  0  0  0  0  0  0
    0.0307    2.7493   -1.3173 H   0  0  0  0  0  0  0  0  0  0  0  0
    1.7940    2.5770   -1.1462 H   0  0  0  0  0  0  0  0  0  0  0  0
    0.9192    1.6129   -2.3601 H   0  0  0  0  0  0  0  0  0  0  0  0
    0.8781    0.5654    1.7791 H   0  0  0  0  0  0  0  0  0  0  0  0
    1.7709    1.9867    1.1864 H   0  0  0  0  0  0  0  0  0  0  0  0
    0.0039    2.0652    1.3859 H   0  0  0  0  0  0  0  0  0  0  0  0
    1.6418   -0.4810   -1.7121 H   0  0  0  0  0  0  0  0  0  0  0  0
    4.5192   -0.6095   -0.7818 H   0  0  0  0  0  0  0  0  0  0  0  0
    4.3357   -1.8261    0.5045 H   0  0  0  0  0  0  0  0  0  0  0  0
    3.5005   -2.0439   -1.0522 H   0  0  0  0  0  0  0  0  0  0  0  0
  3 11  1  0  0  0  0
  7 11  2  0  0  0  0
 10 11  1  0  0  0  0
  1  3  1  0  0  0  0
  1 14  1  0  0  0  0
  1  9  1  0  0  0  0
  4 14  1  0  0  0  0
  5 14  1  0  0  0  0
  2 14  1  0  0  0  0
  2  9  1  0  0  0  0
  2 12  1  0  0  0  0
  6 12  1  0  0  0  0
  8 12  2  0  0  0  0
  3 15  1  0  0  0  0
  3 16  1  0  0  0  0
  1 17  1  0  0  0  0
 10 13  1  0  0  0  0
  9 18  1  0  0  0  0
  9 19  1  0  0  0  0
  4 20  1  0  0  0  0
  4 21  1  0  0  0  0
  4 22  1  0  0  0  0
  5 23  1  0  0  0  0
  5 24  1  0  0  0  0
  5 25  1  0  0  0  0
  2 26  1  0  0  0  0
  6 27  1  0  0  0  0
  6 28  1  0  0  0  0
  6 29  1  0  0  0  0
M  END
$$$$
