C8H12O4
APtclcactv12151716343D 0   0.00000     0.00000
 
 24 24  0  0  0  0  0  0  0  0999 V2000
   -0.4901   -0.3044    0.8998 C   0  0  1  0  0  0  0  0  0  0  0  0
   -0.1796   -0.8254    1.8055 H   0  0  0  0  0  0  0  0  0  0  0  0
    0.5631    0.7407    0.5262 C   0  0  2  0  0  0  0  0  0  0  0  0
    0.6678    1.4580    1.3401 H   0  0  0  0  0  0  0  0  0  0  0  0
    0.1273    1.4720   -0.7451 C   0  0  0  0  0  0  0  0  0  0  0  0
   -1.2146    2.1651   -0.5003 C   0  0  0  0  0  0  0  0  0  0  0  0
   -2.2677    1.1200   -0.1266 C   0  0  0  0  0  0  0  0  0  0  0  0
   -1.8319    0.3887    1.1447 C   0  0  0  0  0  0  0  0  0  0  0  0
    1.8847    0.0580    0.2850 C   0  0  0  0  0  0  0  0  0  0  0  0
    1.9751   -1.1414    0.4001 O   0  0  0  0  0  0  0  0  0  0  0  0
    2.9616    0.7823   -0.0578 O   0  0  0  0  0  0  0  0  0  0  0  0
   -0.6350   -1.2962   -0.2256 C   0  0  0  0  0  0  0  0  0  0  0  0
    0.0353   -1.1791   -1.2240 O   0  0  0  0  0  0  0  0  0  0  0  0
   -1.5087   -2.3095   -0.1187 O   0  0  0  0  0  0  0  0  0  0  0  0
    0.8776    2.2165   -1.0113 H   0  0  0  0  0  0  0  0  0  0  0  0
    0.0225    0.7546   -1.5591 H   0  0  0  0  0  0  0  0  0  0  0  0
   -1.1098    2.8824    0.3137 H   0  0  0  0  0  0  0  0  0  0  0  0
   -1.5250    2.6860   -1.4060 H   0  0  0  0  0  0  0  0  0  0  0  0
   -3.2237    1.6138    0.0478 H   0  0  0  0  0  0  0  0  0  0  0  0
   -2.3725    0.4027   -0.9406 H   0  0  0  0  0  0  0  0  0  0  0  0
   -2.5822   -0.3558    1.4109 H   0  0  0  0  0  0  0  0  0  0  0  0
   -1.7271    1.1061    1.9586 H   0  0  0  0  0  0  0  0  0  0  0  0
    3.7872    0.3001   -0.2021 H   0  0  0  0  0  0  0  0  0  0  0  0
   -1.5663   -2.9202   -0.8663 H   0  0  0  0  0  0  0  0  0  0  0  0
  1  2  1  0  0  0  0
  1  3  1  0  0  0  0
  3  4  1  0  0  0  0
  3  5  1  0  0  0  0
  5  6  1  0  0  0  0
  6  7  1  0  0  0  0
  7  8  1  0  0  0  0
  1  8  1  0  0  0  0
  3  9  1  0  0  0  0
  9 10  2  0  0  0  0
  9 11  1  0  0  0  0
  1 12  1  0  0  0  0
 12 13  2  0  0  0  0
 12 14  1  0  0  0  0
  5 15  1  0  0  0  0
  5 16  1  0  0  0  0
  6 17  1  0  0  0  0
  6 18  1  0  0  0  0
  7 19  1  0  0  0  0
  7 20  1  0  0  0  0
  8 21  1  0  0  0  0
  8 22  1  0  0  0  0
 11 23  1  0  0  0  0
 14 24  1  0  0  0  0
M  END
$$$$
