C6H10O8
APtclcactv12211716553D 0   0.00000     0.00000
 
 24 22  0  0  0  0  0  0  0  0999 V2000
  -13.1486   -1.3282   -0.1456 O   0  0  0  0  0  0  0  0  0  0  0  0
    2.9707   -1.6951    0.1116 C   0  0  0  0  0  0  0  0  0  0  0  0
    1.4668   -1.5994    0.1229 C   0  0  0  0  0  0  0  0  0  0  0  0
    1.0501   -0.1388    0.3070 C   0  0  0  0  0  0  0  0  0  0  0  0
    1.5679    0.3518    1.5453 O   0  0  0  0  0  0  0  0  0  0  0  0
    1.5975    0.6868   -0.8287 C   0  0  0  0  0  0  0  0  0  0  0  0
    2.3535    1.6014   -0.6010 O   0  0  0  0  0  0  0  0  0  0  0  0
    1.2452    0.4060   -2.0931 O   0  0  0  0  0  0  0  0  0  0  0  0
   -0.4768   -0.0416    0.3184 C   0  0  0  0  0  0  0  0  0  0  0  0
   -0.8875    1.4072    0.3763 C   0  0  0  0  0  0  0  0  0  0  0  0
   -0.0454    2.2732    0.4054 O   0  0  0  0  0  0  0  0  0  0  0  0
   -2.1888    1.7357    0.3955 O   0  0  0  0  0  0  0  0  0  0  0  0
    3.6405   -0.6975    0.2380 O   0  0  0  0  0  0  0  0  0  0  0  0
    3.5661   -2.8894   -0.0332 O   0  0  0  0  0  0  0  0  0  0  0  0
  -13.5280   -0.4842   -0.4261 H   0  0  0  0  0  0  0  0  0  0  0  0
  -12.2673   -1.5017   -0.5038 H   0  0  0  0  0  0  0  0  0  0  0  0
    1.0718   -1.9736   -0.8216 H   0  0  0  0  0  0  0  0  0  0  0  0
    1.0708   -2.1965    0.9443 H   0  0  0  0  0  0  0  0  0  0  0  0
    1.2568   -0.1337    2.3216 H   0  0  0  0  0  0  0  0  0  0  0  0
    1.6220    0.9633   -2.7878 H   0  0  0  0  0  0  0  0  0  0  0  0
   -0.8766   -0.4967   -0.5877 H   0  0  0  0  0  0  0  0  0  0  0  0
   -0.8677   -0.5652    1.1909 H   0  0  0  0  0  0  0  0  0  0  0  0
   -2.4033    2.6778    0.4328 H   0  0  0  0  0  0  0  0  0  0  0  0
    4.5330   -2.9006   -0.0343 H   0  0  0  0  0  0  0  0  0  0  0  0
  2  3  1  0  0  0  0
  3  4  1  0  0  0  0
  4  5  1  0  0  0  0
  4  6  1  0  0  0  0
  6  7  2  0  0  0  0
  6  8  1  0  0  0  0
  4  9  1  0  0  0  0
  9 10  1  0  0  0  0
 10 11  2  0  0  0  0
 10 12  1  0  0  0  0
  2 13  2  0  0  0  0
  2 14  1  0  0  0  0
  1 15  1  0  0  0  0
  1 16  1  0  0  0  0
  3 17  1  0  0  0  0
  3 18  1  0  0  0  0
  5 19  1  0  0  0  0
  8 20  1  0  0  0  0
  9 21  1  0  0  0  0
  9 22  1  0  0  0  0
 12 23  1  0  0  0  0
 14 24  1  0  0  0  0
M  END
$$$$
