C5H6O4
APtclcactv12211716423D 0   0.00000     0.00000
 
 15 14  0  0  0  0  0  0  0  0999 V2000
   -1.2029    0.5519   -0.1644 C   0  0  0  0  0  0  0  0  0  0  0  0
   -0.6944   -0.8311   -0.0852 C   0  0  0  0  0  0  0  0  0  0  0  0
   -1.6420   -1.9671    0.2021 C   0  0  0  0  0  0  0  0  0  0  0  0
    0.6130   -1.0774   -0.2691 C   0  0  0  0  0  0  0  0  0  0  0  0
    1.6156   -0.0642    0.1129 C   0  0  0  0  0  0  0  0  0  0  0  0
    1.2750    0.9243    0.7307 O   0  0  0  0  0  0  0  0  0  0  0  0
    2.9090   -0.2358   -0.2239 O   0  0  0  0  0  0  0  0  0  0  0  0
   -0.4635    1.4520   -0.5078 O   0  0  0  0  0  0  0  0  0  0  0  0
   -2.4892    0.8152    0.1389 O   0  0  0  0  0  0  0  0  0  0  0  0
   -2.0345   -2.3590   -0.7362 H   0  0  0  0  0  0  0  0  0  0  0  0
   -1.1112   -2.7578    0.7324 H   0  0  0  0  0  0  0  0  0  0  0  0
   -2.4657   -1.6062    0.8180 H   0  0  0  0  0  0  0  0  0  0  0  0
    0.9306   -2.0170   -0.6966 H   0  0  0  0  0  0  0  0  0  0  0  0
    3.5289    0.4547    0.0483 H   0  0  0  0  0  0  0  0  0  0  0  0
   -2.7763    1.7362    0.0723 H   0  0  0  0  0  0  0  0  0  0  0  0
  1  2  1  0  0  0  0
  2  3  1  0  0  0  0
  2  4  2  0  0  0  0
  4  5  1  0  0  0  0
  5  6  2  0  0  0  0
  5  7  1  0  0  0  0
  1  8  2  0  0  0  0
  1  9  1  0  0  0  0
  3 10  1  0  0  0  0
  3 11  1  0  0  0  0
  3 12  1  0  0  0  0
  4 13  1  0  0  0  0
  7 14  1  0  0  0  0
  9 15  1  0  0  0  0
M  END
$$$$
