C6H8O7
APtclcactv12211716553D 0   0.00000     0.00000
 
 21 20  0  0  0  0  0  0  0  0999 V2000
    1.2578   -1.0478   -0.5892 C   0  0  0  0  0  0  0  0  0  0  0  0
   -1.2395   -1.0997   -0.5349 C   0  0  0  0  0  0  0  0  0  0  0  0
    0.0688   -1.5468    1.7268 H   0  0  0  0  0  0  0  0  0  0  0  0
   -0.0257    1.8522    0.6346 O   0  0  0  0  0  0  0  0  0  0  0  0
    2.3761    0.4923    0.7997 O   0  0  0  0  0  0  0  0  0  0  0  0
   -2.3604    0.5275    0.7486 O   0  0  0  0  0  0  0  0  0  0  0  0
    0.0436   -0.6189    1.4558 O   0  0  0  0  0  0  0  0  0  0  0  0
   -0.0650    1.4672   -1.5411 O   0  0  0  0  0  0  0  0  0  0  0  0
    3.7062   -0.7712   -0.4323 O   0  0  0  0  0  0  0  0  0  0  0  0
   -3.6888   -0.8298   -0.3812 O   0  0  0  0  0  0  0  0  0  0  0  0
   -0.0285    1.0475   -0.2666 C   0  0  0  0  0  0  0  0  0  0  0  0
    2.4874   -0.3856   -0.0229 C   0  0  0  0  0  0  0  0  0  0  0  0
   -2.4704   -0.4075   -0.0087 C   0  0  0  0  0  0  0  0  0  0  0  0
   -0.0881    2.4227   -1.6881 H   0  0  0  0  0  0  0  0  0  0  0  0
    4.4649   -0.3173   -0.0406 H   0  0  0  0  0  0  0  0  0  0  0  0
   -4.4484   -0.3544   -0.0175 H   0  0  0  0  0  0  0  0  0  0  0  0
    0.0088   -0.4275    0.0401 C   0  0  0  0  0  0  0  0  0  0  0  0
    1.2313   -0.9018   -1.6691 H   0  0  0  0  0  0  0  0  0  0  0  0
    1.2849   -2.1146   -0.3674 H   0  0  0  0  0  0  0  0  0  0  0  0
   -1.2572   -2.1482   -0.2375 H   0  0  0  0  0  0  0  0  0  0  0  0
   -1.2209   -1.0309   -1.6226 H   0  0  0  0  0  0  0  0  0  0  0  0
  7 17  1  0  0  0  0
  8 11  1  0  0  0  0
  4 11  2  0  0  0  0
  9 12  1  0  0  0  0
 10 13  1  0  0  0  0
  5 12  2  0  0  0  0
  6 13  2  0  0  0  0
 11 17  1  0  0  0  0
  1 17  1  0  0  0  0
  2 17  1  0  0  0  0
  1 12  1  0  0  0  0
  2 13  1  0  0  0  0
  3  7  1  0  0  0  0
  1 18  1  0  0  0  0
  1 19  1  0  0  0  0
  2 20  1  0  0  0  0
  2 21  1  0  0  0  0
  8 14  1  0  0  0  0
  9 15  1  0  0  0  0
 10 16  1  0  0  0  0
M  END
$$$$
