C8H8N4O4S3
APtclcactv12151716283D 0   0.00000     0.00000
 
 27 28  0  0  0  0  0  0  0  0999 V2000
    3.7767    0.6664    0.9784 C   0  0  0  0  0  0  0  0  0  0  0  0
    2.3950    1.3459   -0.8551 C   0  0  0  0  0  0  0  0  0  0  0  0
    4.1020    1.9875    1.2229 C   0  0  0  0  0  0  0  0  0  0  0  0
    2.7204    2.6670   -0.6107 C   0  0  0  0  0  0  0  0  0  0  0  0
    3.5737    2.9878    0.4284 C   0  0  0  0  0  0  0  0  0  0  0  0
    1.2019   -2.3325    1.2388 H   0  0  0  0  0  0  0  0  0  0  0  0
   -5.0325    1.6638   -1.6002 H   0  0  0  0  0  0  0  0  0  0  0  0
   -3.4278    2.1250   -1.4133 H   0  0  0  0  0  0  0  0  0  0  0  0
   -0.0419   -1.0435    0.2381 C   0  0  0  0  0  0  0  0  0  0  0  0
   -2.3104   -0.0899    0.0097 C   0  0  0  0  0  0  0  0  0  0  0  0
    2.9230    0.3456   -0.0604 C   0  0  0  0  0  0  0  0  0  0  0  0
    2.1183   -1.4097   -1.7365 O   0  0  0  0  0  0  0  0  0  0  0  0
    3.5610   -2.1190    0.1773 O   0  0  0  0  0  0  0  0  0  0  0  0
   -4.7718   -0.6876   -0.3401 O   0  0  0  0  0  0  0  0  0  0  0  0
   -4.1722    1.1251    1.2728 O   0  0  0  0  0  0  0  0  0  0  0  0
   -4.1761    1.5641   -1.1557 N   0  0  0  0  0  0  0  0  0  0  0  0
   -0.2375   -0.1521   -0.6911 N   0  0  0  0  0  0  0  0  0  0  0  0
   -1.3968    0.3311   -0.8031 N   0  0  0  0  0  0  0  0  0  0  0  0
    1.1561   -1.6832    0.5196 N   0  0  0  0  0  0  0  0  0  0  0  0
    2.5084   -1.3383   -0.3719 S   0  0  0  0  0  0  0  0  0  0  0  0
   -3.9916    0.4366    0.0430 S   0  0  0  0  0  0  0  0  0  0  0  0
   -1.5746   -1.2851    1.0795 S   0  0  0  0  0  0  0  0  0  0  0  0
    4.1930   -0.1154    1.5963 H   0  0  0  0  0  0  0  0  0  0  0  0
    1.7281    1.0952   -1.6667 H   0  0  0  0  0  0  0  0  0  0  0  0
    4.7687    2.2382    2.0348 H   0  0  0  0  0  0  0  0  0  0  0  0
    2.3081    3.4484   -1.2318 H   0  0  0  0  0  0  0  0  0  0  0  0
    3.8272    4.0200    0.6199 H   0  0  0  0  0  0  0  0  0  0  0  0
  9 22  1  0  0  0  0
  9 19  1  0  0  0  0
  9 17  2  0  0  0  0
 10 22  1  0  0  0  0
 19 20  1  0  0  0  0
 17 18  1  0  0  0  0
 10 21  1  0  0  0  0
 11 20  1  0  0  0  0
 12 20  2  0  0  0  0
 13 20  2  0  0  0  0
 16 21  1  0  0  0  0
 14 21  2  0  0  0  0
 15 21  2  0  0  0  0
  1 11  2  0  0  0  0
  2 11  1  0  0  0  0
  1  3  1  0  0  0  0
  2  4  2  0  0  0  0
  3  5  2  0  0  0  0
 10 18  2  0  0  0  0
  4  5  1  0  0  0  0
  6 19  1  0  0  0  0
  7 16  1  0  0  0  0
  8 16  1  0  0  0  0
  1 23  1  0  0  0  0
  2 24  1  0  0  0  0
  3 25  1  0  0  0  0
  4 26  1  0  0  0  0
  5 27  1  0  0  0  0
M  END
$$$$
