C12H14ClNO2
APtclcactv12111704593D 0   0.00000     0.00000
 
 30 31  0  0  0  0  0  0  0  0999 V2000
    1.7720    1.7345   -0.6547 C   0  0  0  0  0  0  0  0  0  0  0  0
    3.1452   -0.0792    0.9179 C   0  0  0  0  0  0  0  0  0  0  0  0
    2.8006    2.1662    0.1615 C   0  0  0  0  0  0  0  0  0  0  0  0
    3.4872    1.2594    0.9476 C   0  0  0  0  0  0  0  0  0  0  0  0
    0.3082   -0.0750   -1.5759 C   0  0  0  0  0  0  0  0  0  0  0  0
   -4.1063    0.1824   -0.3347 C   0  0  0  0  0  0  0  0  0  0  0  0
   -2.9889    0.9049    1.8013 C   0  0  0  0  0  0  0  0  0  0  0  0
    1.4293    0.3957   -0.6856 C   0  0  0  0  0  0  0  0  0  0  0  0
    2.1159   -0.5121    0.1006 C   0  0  0  0  0  0  0  0  0  0  0  0
   -1.4762    1.9491   -0.5217 O   0  0  0  0  0  0  0  0  0  0  0  0
   -2.3310   -1.2862    0.7131 C   0  0  0  0  0  0  0  0  0  0  0  0
   -1.6683    0.7678   -0.3256 C   0  0  0  0  0  0  0  0  0  0  0  0
    1.6865   -2.1937    0.0620 Cl  0  0  0  0  0  0  0  0  0  0  0  0
   -1.4302   -1.5049   -0.3893 O   0  0  0  0  0  0  0  0  0  0  0  0
   -2.8078    0.1650    0.4744 C   0  0  0  0  0  0  0  0  0  0  0  0
   -0.9084   -0.2490   -0.7785 N   0  0  0  0  0  0  0  0  0  0  0  0
    0.1287    0.6649   -2.3559 H   0  0  0  0  0  0  0  0  0  0  0  0
    0.5821   -1.0258   -2.0331 H   0  0  0  0  0  0  0  0  0  0  0  0
   -3.1699   -1.9809    0.6711 H   0  0  0  0  0  0  0  0  0  0  0  0
   -1.8057   -1.3693    1.6645 H   0  0  0  0  0  0  0  0  0  0  0  0
   -3.9649   -0.3752   -1.2606 H   0  0  0  0  0  0  0  0  0  0  0  0
   -4.9039   -0.2778    0.2484 H   0  0  0  0  0  0  0  0  0  0  0  0
   -4.3750    1.2126   -0.5684 H   0  0  0  0  0  0  0  0  0  0  0  0
   -3.2382    1.9477    1.6048 H   0  0  0  0  0  0  0  0  0  0  0  0
   -3.7942    0.4398    2.3698 H   0  0  0  0  0  0  0  0  0  0  0  0
   -2.0633    0.8545    2.3747 H   0  0  0  0  0  0  0  0  0  0  0  0
    1.2331    2.4440   -1.2651 H   0  0  0  0  0  0  0  0  0  0  0  0
    3.6819   -0.7875    1.5316 H   0  0  0  0  0  0  0  0  0  0  0  0
    3.0682    3.2123    0.1851 H   0  0  0  0  0  0  0  0  0  0  0  0
    4.2908    1.5973    1.5851 H   0  0  0  0  0  0  0  0  0  0  0  0
 12 16  1  0  0  0  0
  5 16  1  0  0  0  0
 14 16  1  0  0  0  0
 12 15  1  0  0  0  0
 10 12  2  0  0  0  0
  5  8  1  0  0  0  0
 11 14  1  0  0  0  0
  6 15  1  0  0  0  0
  7 15  1  0  0  0  0
  8  9  2  0  0  0  0
  1  8  1  0  0  0  0
  2  9  1  0  0  0  0
  9 13  1  0  0  0  0
  1  3  2  0  0  0  0
  2  4  2  0  0  0  0
 11 15  1  0  0  0  0
  3  4  1  0  0  0  0
  5 17  1  0  0  0  0
  5 18  1  0  0  0  0
 11 19  1  0  0  0  0
 11 20  1  0  0  0  0
  6 21  1  0  0  0  0
  6 22  1  0  0  0  0
  6 23  1  0  0  0  0
  7 24  1  0  0  0  0
  7 25  1  0  0  0  0
  7 26  1  0  0  0  0
  1 27  1  0  0  0  0
  2 28  1  0  0  0  0
  3 29  1  0  0  0  0
  4 30  1  0  0  0  0
M  END
$$$$
