C7H7Cl2NO
APtclcactv12151716173D 0   0.00000     0.00000
 
 18 18  0  0  0  0  0  0  0  0999 V2000
    2.4738    1.9759    0.0033 C   0  0  0  0  0  0  0  0  0  0  0  0
   -2.4738    1.9759   -0.0011 C   0  0  0  0  0  0  0  0  0  0  0  0
   -0.0000    2.8309    0.0032 H   0  0  0  0  0  0  0  0  0  0  0  0
   -0.0000   -2.0983    0.0028 O   0  0  0  0  0  0  0  0  0  0  0  0
    1.1832    1.1978   -0.0010 C   0  0  0  0  0  0  0  0  0  0  0  0
   -1.1832    1.1978   -0.0029 C   0  0  0  0  0  0  0  0  0  0  0  0
   -1.2170   -0.1536    0.0027 C   0  0  0  0  0  0  0  0  0  0  0  0
    1.2170   -0.1536   -0.0002 C   0  0  0  0  0  0  0  0  0  0  0  0
   -0.0000   -0.8756    0.0017 C   0  0  0  0  0  0  0  0  0  0  0  0
    2.7361   -0.9938   -0.0021 Cl  0  0  0  0  0  0  0  0  0  0  0  0
   -2.7361   -0.9938   -0.0005 Cl  0  0  0  0  0  0  0  0  0  0  0  0
    0.0000    1.8609    0.0000 N   0  0  0  0  0  0  0  0  0  0  0  0
   -2.7844    2.1668   -1.0283 H   0  0  0  0  0  0  0  0  0  0  0  0
   -3.2448    1.3996    0.5104 H   0  0  0  0  0  0  0  0  0  0  0  0
   -2.3258    2.9240    0.5159 H   0  0  0  0  0  0  0  0  0  0  0  0
    2.7838    2.1597    1.0320 H   0  0  0  0  0  0  0  0  0  0  0  0
    3.2451    1.4031   -0.5117 H   0  0  0  0  0  0  0  0  0  0  0  0
    2.3261    2.9275   -0.5073 H   0  0  0  0  0  0  0  0  0  0  0  0
  8 10  1  0  0  0  0
  7 11  1  0  0  0  0
  4  9  2  0  0  0  0
  5 12  1  0  0  0  0
  6 12  1  0  0  0  0
  3 12  1  0  0  0  0
  1  5  1  0  0  0  0
  1 16  1  0  0  0  0
  1 17  1  0  0  0  0
  1 18  1  0  0  0  0
  2  6  1  0  0  0  0
  2 13  1  0  0  0  0
  2 14  1  0  0  0  0
  2 15  1  0  0  0  0
  5  8  2  0  0  0  0
  6  7  2  0  0  0  0
  7  9  1  0  0  0  0
  8  9  1  0  0  0  0
M  END
$$$$
