C17H21NO4
APtclcactv12211717373D 0   0.00000     0.00000
 
 43 45  0  0  1  0  0  0  0  0999 V2000
   -1.5775   -0.3681    0.9800 C   0  0  2  0  0  0  0  0  0  0  0  0
   -0.6912    0.6167    0.2120 C   0  0  1  0  0  0  0  0  0  0  0  0
    4.1052    1.4665   -0.0368 C   0  0  0  0  0  0  0  0  0  0  0  0
    3.3568   -0.8291   -0.0004 C   0  0  0  0  0  0  0  0  0  0  0  0
    5.4125    1.0316   -0.1050 C   0  0  0  0  0  0  0  0  0  0  0  0
    4.6686   -1.2502   -0.0688 C   0  0  0  0  0  0  0  0  0  0  0  0
    5.6943   -0.3229   -0.1210 C   0  0  0  0  0  0  0  0  0  0  0  0
   -4.9063    0.2658   -0.6304 C   0  0  0  0  0  0  0  0  0  0  0  0
   -0.2727   -3.6730   -0.3313 C   0  0  0  0  0  0  0  0  0  0  0  0
    3.0652    0.5363    0.0162 C   0  0  0  0  0  0  0  0  0  0  0  0
    1.4122    2.1831    0.1045 O   0  0  0  0  0  0  0  0  0  0  0  0
   -2.4662   -2.2637   -0.1012 O   0  0  0  0  0  0  0  0  0  0  0  0
    1.6628    0.9946    0.0899 C   0  0  0  0  0  0  0  0  0  0  0  0
   -1.4786   -1.7335    0.3498 C   0  0  0  0  0  0  0  0  0  0  0  0
    0.6618    0.0946    0.1408 O   0  0  0  0  0  0  0  0  0  0  0  0
   -0.2933   -2.3605    0.2895 O   0  0  0  0  0  0  0  0  0  0  0  0
   -1.2386    0.8079   -1.2053 C   0  0  0  0  0  0  0  0  0  0  0  0
   -3.0403    1.6268    1.2755 C   0  0  0  0  0  0  0  0  0  0  0  0
   -2.8316    2.3512   -0.0707 C   0  0  0  0  0  0  0  0  0  0  0  0
   -3.0331    0.1220    0.9207 C   0  0  0  0  0  0  0  0  0  0  0  0
   -2.7173    1.2183   -1.1165 C   0  0  0  0  0  0  0  0  0  0  0  0
   -3.4544    0.0807   -0.5049 N   0  0  0  0  0  0  0  0  0  0  0  0
   -3.6904   -0.4650    1.5622 H   0  0  0  0  0  0  0  0  0  0  0  0
   -1.2514   -0.4191    2.0188 H   0  0  0  0  0  0  0  0  0  0  0  0
   -0.6828    1.5762    0.7291 H   0  0  0  0  0  0  0  0  0  0  0  0
   -3.1244    1.4992   -2.0878 H   0  0  0  0  0  0  0  0  0  0  0  0
   -0.6728    1.5891   -1.7129 H   0  0  0  0  0  0  0  0  0  0  0  0
   -1.1518   -0.1267   -1.7594 H   0  0  0  0  0  0  0  0  0  0  0  0
   -2.2254    1.8587    1.9613 H   0  0  0  0  0  0  0  0  0  0  0  0
   -3.9977    1.9087    1.7135 H   0  0  0  0  0  0  0  0  0  0  0  0
   -3.6865    2.9893   -0.2946 H   0  0  0  0  0  0  0  0  0  0  0  0
   -1.9142    2.9394   -0.0468 H   0  0  0  0  0  0  0  0  0  0  0  0
   -5.1870    1.2319   -0.2109 H   0  0  0  0  0  0  0  0  0  0  0  0
   -5.1874    0.2313   -1.6830 H   0  0  0  0  0  0  0  0  0  0  0  0
   -5.4219   -0.5284   -0.0904 H   0  0  0  0  0  0  0  0  0  0  0  0
    3.8867    2.5241   -0.0199 H   0  0  0  0  0  0  0  0  0  0  0  0
    2.5571   -1.5539    0.0400 H   0  0  0  0  0  0  0  0  0  0  0  0
   -0.9320   -4.3451    0.2180 H   0  0  0  0  0  0  0  0  0  0  0  0
   -0.6141   -3.5922   -1.3633 H   0  0  0  0  0  0  0  0  0  0  0  0
    0.7435   -4.0669   -0.3146 H   0  0  0  0  0  0  0  0  0  0  0  0
    6.2178    1.7500   -0.1464 H   0  0  0  0  0  0  0  0  0  0  0  0
    4.8956   -2.3060   -0.0817 H   0  0  0  0  0  0  0  0  0  0  0  0
    6.7196   -0.6580   -0.1746 H   0  0  0  0  0  0  0  0  0  0  0  0
  1 20  1  0  0  0  0
 20 22  1  0  0  0  0
  1  2  1  0  0  0  0
 21 22  1  0  0  0  0
 13 15  1  0  0  0  0
 17 21  1  0  0  0  0
  2 15  1  0  0  0  0
  1 14  1  0  0  0  0
 18 20  1  0  0  0  0
 18 19  1  0  0  0  0
 11 13  2  0  0  0  0
 10 13  1  0  0  0  0
 12 14  2  0  0  0  0
  8 22  1  0  0  0  0
 14 16  1  0  0  0  0
  3 10  1  0  0  0  0
  4 10  2  0  0  0  0
  9 16  1  0  0  0  0
  3  5  2  0  0  0  0
  4  6  1  0  0  0  0
  6  7  2  0  0  0  0
 19 21  1  0  0  0  0
  2 17  1  0  0  0  0
  5  7  1  0  0  0  0
 20 23  1  0  0  0  0
  1 24  1  0  0  0  0
  2 25  1  0  0  0  0
 21 26  1  0  0  0  0
 17 27  1  0  0  0  0
 17 28  1  0  0  0  0
 18 29  1  0  0  0  0
 18 30  1  0  0  0  0
 19 31  1  0  0  0  0
 19 32  1  0  0  0  0
  8 33  1  0  0  0  0
  8 34  1  0  0  0  0
  8 35  1  0  0  0  0
  3 36  1  0  0  0  0
  4 37  1  0  0  0  0
  9 38  1  0  0  0  0
  9 39  1  0  0  0  0
  9 40  1  0  0  0  0
  5 41  1  0  0  0  0
  6 42  1  0  0  0  0
  7 43  1  0  0  0  0
M  END
$$$$
