C15H22ClNO2
APtclcactv12211717093D 0   0.00000     0.00000
 
 41 41  0  0  0  0  0  0  0  0999 V2000
    3.9695   -0.5714   -0.2944 C   0  0  0  0  0  0  0  0  0  0  0  0
    3.9164   -1.4845    0.7426 C   0  0  0  0  0  0  0  0  0  0  0  0
    2.7094   -1.7728    1.3529 C   0  0  0  0  0  0  0  0  0  0  0  0
   -1.2811    2.1777   -0.3595 C   0  0  0  0  0  0  0  0  0  0  0  0
   -0.2979   -0.1159   -1.7027 C   0  0  0  0  0  0  0  0  0  0  0  0
   -2.2989   -0.9577   -0.6865 C   0  0  0  0  0  0  0  0  0  0  0  0
    2.8754    1.0521   -1.8531 C   0  0  0  0  0  0  0  0  0  0  0  0
    0.2378   -1.4639    1.5935 C   0  0  0  0  0  0  0  0  0  0  0  0
   -2.3210   -3.1170    0.5702 C   0  0  0  0  0  0  0  0  0  0  0  0
   -4.4630   -1.9132    0.1173 C   0  0  0  0  0  0  0  0  0  0  0  0
    1.6028   -0.2310   -0.1127 C   0  0  0  0  0  0  0  0  0  0  0  0
    2.8164    0.0560   -0.7238 C   0  0  0  0  0  0  0  0  0  0  0  0
    1.5527   -1.1491    0.9280 C   0  0  0  0  0  0  0  0  0  0  0  0
    0.5839    1.9243    1.0643 O   0  0  0  0  0  0  0  0  0  0  0  0
   -0.0212    1.4939    0.1054 C   0  0  0  0  0  0  0  0  0  0  0  0
   -1.0521   -1.2655   -1.3132 O   0  0  0  0  0  0  0  0  0  0  0  0
   -3.0781   -2.2508   -0.4385 C   0  0  0  0  0  0  0  0  0  0  0  0
   -1.6247    3.5924    0.7042 Cl  0  0  0  0  0  0  0  0  0  0  0  0
    0.4330    0.4040   -0.5444 N   0  0  0  0  0  0  0  0  0  0  0  0
   -1.1517    2.5185   -1.3868 H   0  0  0  0  0  0  0  0  0  0  0  0
   -2.1141    1.4764   -0.3116 H   0  0  0  0  0  0  0  0  0  0  0  0
    3.0510    2.0492   -1.4493 H   0  0  0  0  0  0  0  0  0  0  0  0
    3.6872    0.7861   -2.5301 H   0  0  0  0  0  0  0  0  0  0  0  0
    1.9307    1.0414   -2.3967 H   0  0  0  0  0  0  0  0  0  0  0  0
    4.9143   -0.3453   -0.7662 H   0  0  0  0  0  0  0  0  0  0  0  0
    4.8194   -1.9738    1.0765 H   0  0  0  0  0  0  0  0  0  0  0  0
    2.6712   -2.4867    2.1624 H   0  0  0  0  0  0  0  0  0  0  0  0
    0.1119   -0.8266    2.4688 H   0  0  0  0  0  0  0  0  0  0  0  0
   -0.5768   -1.2832    0.8923 H   0  0  0  0  0  0  0  0  0  0  0  0
    0.2274   -2.5096    1.9010 H   0  0  0  0  0  0  0  0  0  0  0  0
    0.4095   -0.3932   -2.4842 H   0  0  0  0  0  0  0  0  0  0  0  0
   -0.9739    0.6514   -2.0800 H   0  0  0  0  0  0  0  0  0  0  0  0
   -2.1140   -0.4570    0.2639 H   0  0  0  0  0  0  0  0  0  0  0  0
   -2.8798   -0.3023   -1.3355 H   0  0  0  0  0  0  0  0  0  0  0  0
   -3.1859   -2.7956   -1.3764 H   0  0  0  0  0  0  0  0  0  0  0  0
   -2.8761   -4.0383    0.7469 H   0  0  0  0  0  0  0  0  0  0  0  0
   -1.3344   -3.3575    0.1742 H   0  0  0  0  0  0  0  0  0  0  0  0
   -2.2132   -2.5722    1.5081 H   0  0  0  0  0  0  0  0  0  0  0  0
   -5.0024   -1.2961   -0.6013 H   0  0  0  0  0  0  0  0  0  0  0  0
   -5.0181   -2.8345    0.2939 H   0  0  0  0  0  0  0  0  0  0  0  0
   -4.3552   -1.3684    1.0552 H   0  0  0  0  0  0  0  0  0  0  0  0
  4 18  1  0  0  0  0
  4 15  1  0  0  0  0
 14 15  2  0  0  0  0
 15 19  1  0  0  0  0
 11 19  1  0  0  0  0
 11 12  1  0  0  0  0
  7 12  1  0  0  0  0
  1 12  2  0  0  0  0
  1  2  1  0  0  0  0
  2  3  2  0  0  0  0
  3 13  1  0  0  0  0
 11 13  2  0  0  0  0
  8 13  1  0  0  0  0
  5 19  1  0  0  0  0
  5 16  1  0  0  0  0
  6 16  1  0  0  0  0
  6 17  1  0  0  0  0
  9 17  1  0  0  0  0
 10 17  1  0  0  0  0
  4 20  1  0  0  0  0
  4 21  1  0  0  0  0
  7 22  1  0  0  0  0
  7 23  1  0  0  0  0
  7 24  1  0  0  0  0
  1 25  1  0  0  0  0
  2 26  1  0  0  0  0
  3 27  1  0  0  0  0
  8 28  1  0  0  0  0
  8 29  1  0  0  0  0
  8 30  1  0  0  0  0
  5 31  1  0  0  0  0
  5 32  1  0  0  0  0
  6 33  1  0  0  0  0
  6 34  1  0  0  0  0
 17 35  1  0  0  0  0
  9 36  1  0  0  0  0
  9 37  1  0  0  0  0
  9 38  1  0  0  0  0
 10 39  1  0  0  0  0
 10 40  1  0  0  0  0
 10 41  1  0  0  0  0
M  END
$$$$
