C4H9N3O2
APtclcactv12211716403D 0   0.00000     0.00000
 
 18 17  0  0  0  0  0  0  0  0999 V2000
    1.3831    0.0886    1.2681 O   0  0  0  0  0  0  0  0  0  0  0  0
    1.7071   -0.0298    0.1101 C   0  0  0  0  0  0  0  0  0  0  0  0
    2.9708   -0.3565   -0.2032 O   0  0  0  0  0  0  0  0  0  0  0  0
    0.6911    0.1834   -0.9822 C   0  0  0  0  0  0  0  0  0  0  0  0
   -0.6036    0.5214   -0.3857 N   0  0  0  0  0  0  0  0  0  0  0  0
   -0.9483    1.9219   -0.1286 C   0  0  0  0  0  0  0  0  0  0  0  0
   -1.4950   -0.4756   -0.0672 C   0  0  0  0  0  0  0  0  0  0  0  0
   -2.7100   -0.1584    0.4926 N   0  0  0  0  0  0  0  0  0  0  0  0
   -1.1883   -1.7216   -0.2959 N   0  0  0  0  0  0  0  0  0  0  0  0
    3.5856   -0.4870    0.5317 H   0  0  0  0  0  0  0  0  0  0  0  0
    1.0175    0.9985   -1.6281 H   0  0  0  0  0  0  0  0  0  0  0  0
    0.5930   -0.7291   -1.5703 H   0  0  0  0  0  0  0  0  0  0  0  0
   -1.4477    2.3395   -1.0029 H   0  0  0  0  0  0  0  0  0  0  0  0
   -1.6142    1.9800    0.7324 H   0  0  0  0  0  0  0  0  0  0  0  0
   -0.0397    2.4881    0.0759 H   0  0  0  0  0  0  0  0  0  0  0  0
   -2.9383    0.7689    0.6628 H   0  0  0  0  0  0  0  0  0  0  0  0
   -3.3390   -0.8618    0.7174 H   0  0  0  0  0  0  0  0  0  0  0  0
   -1.8173   -2.4250   -0.0712 H   0  0  0  0  0  0  0  0  0  0  0  0
  1  2  2  0  0  0  0
  2  3  1  0  0  0  0
  2  4  1  0  0  0  0
  4  5  1  0  0  0  0
  5  6  1  0  0  0  0
  5  7  1  0  0  0  0
  7  8  1  0  0  0  0
  7  9  2  0  0  0  0
  3 10  1  0  0  0  0
  4 11  1  0  0  0  0
  4 12  1  0  0  0  0
  6 13  1  0  0  0  0
  6 14  1  0  0  0  0
  6 15  1  0  0  0  0
  8 16  1  0  0  0  0
  8 17  1  0  0  0  0
  9 18  1  0  0  0  0
M  END
$$$$
