C4H7N3O
APtclcactv12211716393D 0   0.00000     0.00000
 
 15 15  0  0  0  0  0  0  0  0999 V2000
    2.0760   -1.3635    0.0000 C   0  0  0  0  0  0  0  0  0  0  0  0
    2.5548    1.2990    0.0008 H   0  0  0  0  0  0  0  0  0  0  0  0
    1.4404    2.5563    0.0001 H   0  0  0  0  0  0  0  0  0  0  0  0
   -2.6771   -0.0220    0.0000 O   0  0  0  0  0  0  0  0  0  0  0  0
   -0.5521   -1.2381    0.0001 C   0  0  0  0  0  0  0  0  0  0  0  0
    0.6152    0.7024   -0.0004 C   0  0  0  0  0  0  0  0  0  0  0  0
   -1.4617   -0.0251    0.0002 C   0  0  0  0  0  0  0  0  0  0  0  0
    1.6346    1.6060    0.0002 N   0  0  0  0  0  0  0  0  0  0  0  0
    0.7985   -0.6465   -0.0002 N   0  0  0  0  0  0  0  0  0  0  0  0
   -0.6583    1.0349   -0.0001 N   0  0  0  0  0  0  0  0  0  0  0  0
   -0.7096   -1.8371    0.8971 H   0  0  0  0  0  0  0  0  0  0  0  0
   -0.7099   -1.8373   -0.8966 H   0  0  0  0  0  0  0  0  0  0  0  0
    2.8958   -0.6452   -0.0003 H   0  0  0  0  0  0  0  0  0  0  0  0
    2.1414   -1.9890    0.8903 H   0  0  0  0  0  0  0  0  0  0  0  0
    2.1413   -1.9898   -0.8897 H   0  0  0  0  0  0  0  0  0  0  0  0
  6  9  1  0  0  0  0
  6 10  2  0  0  0  0
  6  8  1  0  0  0  0
  5  9  1  0  0  0  0
  1  9  1  0  0  0  0
  7 10  1  0  0  0  0
  4  7  2  0  0  0  0
  5  7  1  0  0  0  0
  2  8  1  0  0  0  0
  3  8  1  0  0  0  0
  5 11  1  0  0  0  0
  5 12  1  0  0  0  0
  1 13  1  0  0  0  0
  1 14  1  0  0  0  0
  1 15  1  0  0  0  0
M  END
$$$$
