C4H6O
APtclcactv12211716373D 0   0.00000     0.00000
 
 11 10  0  0  0  0  0  0  0  0999 V2000
    1.2804   -0.3878   -0.0003 C   0  0  0  0  0  0  0  0  0  0  0  0
   -0.0226    0.2766    0.0001 C   0  0  0  0  0  0  0  0  0  0  0  0
   -1.1421   -0.4499   -0.0003 C   0  0  0  0  0  0  0  0  0  0  0  0
   -2.4846    0.2347    0.0001 C   0  0  0  0  0  0  0  0  0  0  0  0
    2.2981    0.2727    0.0000 O   0  0  0  0  0  0  0  0  0  0  0  0
    1.3366   -1.4663    0.0037 H   0  0  0  0  0  0  0  0  0  0  0  0
   -0.0788    1.3552    0.0006 H   0  0  0  0  0  0  0  0  0  0  0  0
   -1.0859   -1.5284   -0.0008 H   0  0  0  0  0  0  0  0  0  0  0  0
   -2.5749    0.8570    0.8904 H   0  0  0  0  0  0  0  0  0  0  0  0
   -2.5749    0.8579   -0.8896 H   0  0  0  0  0  0  0  0  0  0  0  0
   -3.2751   -0.5158   -0.0002 H   0  0  0  0  0  0  0  0  0  0  0  0
  1  2  1  0  0  0  0
  2  3  2  0  0  0  0
  3  4  1  0  0  0  0
  1  5  2  0  0  0  0
  1  6  1  0  0  0  0
  2  7  1  0  0  0  0
  3  8  1  0  0  0  0
  4  9  1  0  0  0  0
  4 10  1  0  0  0  0
  4 11  1  0  0  0  0
M  END
$$$$
