C3H4N2O
APtclcactv12101715363D 0   0.00000     0.00000
 
 10  9  0  0  0  0  0  0  0  0999 V2000
   -1.5181   -0.2849   -0.0000 C   0  0  0  0  0  0  0  0  0  0  0  0
   -2.5246    0.2418    0.0000 N   0  0  0  0  0  0  0  0  0  0  0  0
   -0.2139   -0.9674   -0.0000 C   0  0  0  0  0  0  0  0  0  0  0  0
    0.8899    0.0586    0.0000 C   0  0  0  0  0  0  0  0  0  0  0  0
    0.6191    1.2408    0.0000 O   0  0  0  0  0  0  0  0  0  0  0  0
    2.1782   -0.3376   -0.0000 N   0  0  0  0  0  0  0  0  0  0  0  0
   -0.1302   -1.5911    0.8900 H   0  0  0  0  0  0  0  0  0  0  0  0
   -0.1302   -1.5911   -0.8900 H   0  0  0  0  0  0  0  0  0  0  0  0
    2.3948   -1.2831   -0.0000 H   0  0  0  0  0  0  0  0  0  0  0  0
    2.8887    0.3228    0.0000 H   0  0  0  0  0  0  0  0  0  0  0  0
  1  2  3  0  0  0  0
  1  3  1  0  0  0  0
  3  4  1  0  0  0  0
  4  5  2  0  0  0  0
  4  6  1  0  0  0  0
  3  7  1  0  0  0  0
  3  8  1  0  0  0  0
  6  9  1  0  0  0  0
  6 10  1  0  0  0  0
M  END
$$$$
