C3HN5S2
APtclcactv12101715353D 0   0.00000     0.00000
 
 11  9  0  0  0  0  0  0  0  0999 V2000
   -4.1683    0.0357    0.0514 C   0  0  0  0  0  0  0  0  0  0  0  0
   -5.7270    0.7162    0.5119 S   0  0  0  0  0  0  0  0  0  0  0  0
   -3.0076    1.0137   -0.7404 S   0  0  0  0  0  0  0  0  0  0  0  0
   -3.8947   -1.2219    0.3208 N   0  0  0  0  0  0  0  0  0  0  0  0
   -2.9004   -1.6561    0.0270 N   0  3  0  0  0  0  0  0  0  0  0  0
   -1.9061   -2.0902   -0.2668 N   0  5  0  0  0  0  0  0  0  0  0  0
    7.3780    1.3449    0.3698 N   0  0  0  0  0  0  0  0  0  0  0  0
    8.2592    0.6470    0.2057 C   0  0  0  0  0  0  0  0  0  0  0  0
    9.3274   -0.1988    0.0068 C   0  0  0  0  0  0  0  0  0  0  0  0
   10.2087   -0.8967   -0.1572 N   0  0  0  0  0  0  0  0  0  0  0  0
   -5.5656    2.0365    0.0439 H   0  0  0  0  0  0  0  0  0  0  0  0
  1  2  1  0  0  0  0
  1  3  2  0  0  0  0
  1  4  1  0  0  0  0
  4  5  2  0  0  0  0
  5  6  2  0  0  0  0
  7  8  3  0  0  0  0
  8  9  1  0  0  0  0
  9 10  3  0  0  0  0
  2 11  1  0  0  0  0
M  CHG  2   5   1   6  -1
M  END
$$$$
