C10H19N2O4PS
APtclcactv12211717293D 0   0.00000     0.00000
 
 37 36  0  0  0  0  0  0  0  0999 V2000
   -0.5449    0.2910    0.1812 C   0  0  0  0  0  0  0  0  0  0  0  0
    1.7937    2.7437   -0.0194 C   0  0  0  0  0  0  0  0  0  0  0  0
    4.0299   -2.0216    0.3401 C   0  0  0  0  0  0  0  0  0  0  0  0
   -4.5292   -0.5444   -1.5521 C   0  0  0  0  0  0  0  0  0  0  0  0
   -4.3072   -1.7424    0.6292 C   0  0  0  0  0  0  0  0  0  0  0  0
    2.2499    4.0210   -0.7274 C   0  0  0  0  0  0  0  0  0  0  0  0
    5.3450   -2.5633   -0.2241 C   0  0  0  0  0  0  0  0  0  0  0  0
   -2.9899    1.1733    0.5764 H   0  0  0  0  0  0  0  0  0  0  0  0
   -1.9105   -1.4062   -0.7267 O   0  0  0  0  0  0  0  0  0  0  0  0
    2.4210    0.2606    1.7443 O   0  0  0  0  0  0  0  0  0  0  0  0
   -1.8728   -0.3377   -0.1542 C   0  0  0  0  0  0  0  0  0  0  0  0
    2.6994    1.6810   -0.3236 O   0  0  0  0  0  0  0  0  0  0  0  0
    3.8251   -0.6868   -0.1271 O   0  0  0  0  0  0  0  0  0  0  0  0
   -3.0185    0.2875    0.1819 N   0  0  0  0  0  0  0  0  0  0  0  0
   -4.3069   -0.3706   -0.0484 C   0  0  0  0  0  0  0  0  0  0  0  0
   -5.3873    0.4552    0.5151 C   0  0  0  0  0  0  0  0  0  0  0  0
    2.5369    0.1934    0.2703 P   0  0  0  0  0  0  0  0  0  0  0  0
    0.7928   -0.7027   -0.5356 S   0  0  0  0  0  0  0  0  0  0  0  0
   -6.2212    1.0925    0.9499 N   0  0  0  0  0  0  0  0  0  0  0  0
   -0.5071    1.3005   -0.2281 H   0  0  0  0  0  0  0  0  0  0  0  0
   -0.4261    0.3332    1.2639 H   0  0  0  0  0  0  0  0  0  0  0  0
   -3.8102   -1.2633   -1.9450 H   0  0  0  0  0  0  0  0  0  0  0  0
   -5.5411   -0.9083   -1.7302 H   0  0  0  0  0  0  0  0  0  0  0  0
   -4.3946    0.4145   -2.0526 H   0  0  0  0  0  0  0  0  0  0  0  0
   -4.1489   -1.6185    1.7005 H   0  0  0  0  0  0  0  0  0  0  0  0
   -5.2659   -2.2320    0.4578 H   0  0  0  0  0  0  0  0  0  0  0  0
   -3.5072   -2.3539    0.2119 H   0  0  0  0  0  0  0  0  0  0  0  0
    1.7783    2.9109    1.0576 H   0  0  0  0  0  0  0  0  0  0  0  0
    0.7932    2.4770   -0.3600 H   0  0  0  0  0  0  0  0  0  0  0  0
    1.5132    4.8081   -0.5672 H   0  0  0  0  0  0  0  0  0  0  0  0
    3.2121    4.3362   -0.3237 H   0  0  0  0  0  0  0  0  0  0  0  0
    2.3496    3.8285   -1.7956 H   0  0  0  0  0  0  0  0  0  0  0  0
    3.2053   -2.6529    0.0093 H   0  0  0  0  0  0  0  0  0  0  0  0
    4.0740   -2.0226    1.4292 H   0  0  0  0  0  0  0  0  0  0  0  0
    5.3009   -2.5623   -1.3132 H   0  0  0  0  0  0  0  0  0  0  0  0
    6.1696   -1.9320    0.1067 H   0  0  0  0  0  0  0  0  0  0  0  0
    5.5012   -3.5815    0.1323 H   0  0  0  0  0  0  0  0  0  0  0  0
 17 18  1  0  0  0  0
  1 18  1  0  0  0  0
  1 11  1  0  0  0  0
  9 11  2  0  0  0  0
 11 14  1  0  0  0  0
 14 15  1  0  0  0  0
 15 16  1  0  0  0  0
 16 19  3  0  0  0  0
  4 15  1  0  0  0  0
  5 15  1  0  0  0  0
 10 17  2  0  0  0  0
 12 17  1  0  0  0  0
  2 12  1  0  0  0  0
  2  6  1  0  0  0  0
 13 17  1  0  0  0  0
  3 13  1  0  0  0  0
  3  7  1  0  0  0  0
  1 20  1  0  0  0  0
  1 21  1  0  0  0  0
  8 14  1  0  0  0  0
  4 22  1  0  0  0  0
  4 23  1  0  0  0  0
  4 24  1  0  0  0  0
  5 25  1  0  0  0  0
  5 26  1  0  0  0  0
  5 27  1  0  0  0  0
  2 28  1  0  0  0  0
  2 29  1  0  0  0  0
  6 30  1  0  0  0  0
  6 31  1  0  0  0  0
  6 32  1  0  0  0  0
  3 33  1  0  0  0  0
  3 34  1  0  0  0  0
  7 35  1  0  0  0  0
  7 36  1  0  0  0  0
  7 37  1  0  0  0  0
M  END
$$$$
