C7H12
APtclcactv12151716203D 0   0.00000     0.00000
 
 19 19  0  0  0  0  0  0  0  0999 V2000
   -1.4707    0.6482    0.2417 C   0  0  0  0  0  0  0  0  0  0  0  0
   -1.4715   -0.6470    0.2414 C   0  0  0  0  0  0  0  0  0  0  0  0
   -0.3849   -1.4126   -0.4830 C   0  0  0  0  0  0  0  0  0  0  0  0
    0.9200   -1.2712    0.3039 C   0  0  0  0  0  0  0  0  0  0  0  0
    1.6516   -0.0006   -0.0913 C   0  0  0  0  0  0  0  0  0  0  0  0
    0.9209    1.2705    0.3037 C   0  0  0  0  0  0  0  0  0  0  0  0
   -0.3836    1.4128   -0.4828 C   0  0  0  0  0  0  0  0  0  0  0  0
   -2.2525    1.1856    0.7579 H   0  0  0  0  0  0  0  0  0  0  0  0
   -2.2513   -1.1838    0.7611 H   0  0  0  0  0  0  0  0  0  0  0  0
   -0.6605   -2.4651   -0.5485 H   0  0  0  0  0  0  0  0  0  0  0  0
   -0.2544   -1.0030   -1.4846 H   0  0  0  0  0  0  0  0  0  0  0  0
    0.6945   -1.2387    1.3698 H   0  0  0  0  0  0  0  0  0  0  0  0
    1.5576   -2.1311    0.0987 H   0  0  0  0  0  0  0  0  0  0  0  0
    2.6324   -0.0010    0.3841 H   0  0  0  0  0  0  0  0  0  0  0  0
    1.7913   -0.0008   -1.1723 H   0  0  0  0  0  0  0  0  0  0  0  0
    0.6954    1.2383    1.3696 H   0  0  0  0  0  0  0  0  0  0  0  0
    1.5593    2.1299    0.0985 H   0  0  0  0  0  0  0  0  0  0  0  0
   -0.2535    1.0030   -1.4844 H   0  0  0  0  0  0  0  0  0  0  0  0
   -0.6583    2.4656   -0.5484 H   0  0  0  0  0  0  0  0  0  0  0  0
  1  2  2  0  0  0  0
  2  3  1  0  0  0  0
  3  4  1  0  0  0  0
  4  5  1  0  0  0  0
  5  6  1  0  0  0  0
  6  7  1  0  0  0  0
  1  7  1  0  0  0  0
  1  8  1  0  0  0  0
  2  9  1  0  0  0  0
  3 10  1  0  0  0  0
  3 11  1  0  0  0  0
  4 12  1  0  0  0  0
  4 13  1  0  0  0  0
  5 14  1  0  0  0  0
  5 15  1  0  0  0  0
  6 16  1  0  0  0  0
  6 17  1  0  0  0  0
  7 18  1  0  0  0  0
  7 19  1  0  0  0  0
M  END
$$$$
