C8H16O3
APtclcactv12151716343D 0   0.00000     0.00000
 
 27 26  0  0  0  0  0  0  0  0999 V2000
   -9.1009   -0.0485   -0.1055 C   0  0  0  0  0  0  0  0  0  0  0  0
  -10.3370    0.6394    0.4140 C   0  0  0  0  0  0  0  0  0  0  0  0
   -8.2547    0.5881   -0.6874 O   0  0  0  0  0  0  0  0  0  0  0  0
   -8.9373   -1.3674    0.0830 O   0  0  0  0  0  0  0  0  0  0  0  0
    4.9574    0.7749    0.5531 C   0  0  0  0  0  0  0  0  0  0  0  0
    4.4917   -0.6809    0.4855 C   0  0  0  0  0  0  0  0  0  0  0  0
    5.7068   -1.6085    0.5484 C   0  0  0  0  0  0  0  0  0  0  0  0
    6.6345   -1.3145   -0.6322 C   0  0  0  0  0  0  0  0  0  0  0  0
    7.1002    0.1413   -0.5647 C   0  0  0  0  0  0  0  0  0  0  0  0
    5.8851    1.0690   -0.6275 C   0  0  0  0  0  0  0  0  0  0  0  0
    3.8225    1.6413    0.4944 O   0  0  0  0  0  0  0  0  0  0  0  0
  -11.1114    0.6230   -0.3529 H   0  0  0  0  0  0  0  0  0  0  0  0
  -10.6950    0.1204    1.3031 H   0  0  0  0  0  0  0  0  0  0  0  0
  -10.0985    1.6724    0.6675 H   0  0  0  0  0  0  0  0  0  0  0  0
   -8.1284   -1.7641   -0.2682 H   0  0  0  0  0  0  0  0  0  0  0  0
    5.4940    0.9418    1.4871 H   0  0  0  0  0  0  0  0  0  0  0  0
    3.8308   -0.8903    1.3266 H   0  0  0  0  0  0  0  0  0  0  0  0
    3.9551   -0.8477   -0.4485 H   0  0  0  0  0  0  0  0  0  0  0  0
    6.2433   -1.4417    1.4824 H   0  0  0  0  0  0  0  0  0  0  0  0
    5.3750   -2.6457    0.5002 H   0  0  0  0  0  0  0  0  0  0  0  0
    7.5001   -1.9753   -0.5875 H   0  0  0  0  0  0  0  0  0  0  0  0
    6.0979   -1.4813   -1.5663 H   0  0  0  0  0  0  0  0  0  0  0  0
    7.6367    0.3082    0.3694 H   0  0  0  0  0  0  0  0  0  0  0  0
    7.7611    0.3508   -1.4057 H   0  0  0  0  0  0  0  0  0  0  0  0
    5.3485    0.9021   -1.5615 H   0  0  0  0  0  0  0  0  0  0  0  0
    6.2169    2.1061   -0.5793 H   0  0  0  0  0  0  0  0  0  0  0  0
    4.0434    2.5820    0.5325 H   0  0  0  0  0  0  0  0  0  0  0  0
  1  2  1  0  0  0  0
  1  3  2  0  0  0  0
  1  4  1  0  0  0  0
  5  6  1  0  0  0  0
  6  7  1  0  0  0  0
  7  8  1  0  0  0  0
  8  9  1  0  0  0  0
  9 10  1  0  0  0  0
  5 10  1  0  0  0  0
  5 11  1  0  0  0  0
  2 12  1  0  0  0  0
  2 13  1  0  0  0  0
  2 14  1  0  0  0  0
  4 15  1  0  0  0  0
  5 16  1  0  0  0  0
  6 17  1  0  0  0  0
  6 18  1  0  0  0  0
  7 19  1  0  0  0  0
  7 20  1  0  0  0  0
  8 21  1  0  0  0  0
  8 22  1  0  0  0  0
  9 23  1  0  0  0  0
  9 24  1  0  0  0  0
 10 25  1  0  0  0  0
 10 26  1  0  0  0  0
 11 27  1  0  0  0  0
M  END
$$$$
