C7H12O2
APtclcactv12151716213D 0   0.00000     0.00000
 
 21 21  0  0  0  0  0  0  0  0999 V2000
   -0.2558    0.0312    0.4102 C   0  0  0  0  0  0  0  0  0  0  0  0
    0.4707   -1.2608    0.0309 C   0  0  0  0  0  0  0  0  0  0  0  0
    1.9494   -1.1433    0.4057 C   0  0  0  0  0  0  0  0  0  0  0  0
    2.5744    0.0331   -0.3469 C   0  0  0  0  0  0  0  0  0  0  0  0
    1.8479    1.3251    0.0323 C   0  0  0  0  0  0  0  0  0  0  0  0
    0.3692    1.2075   -0.3425 C   0  0  0  0  0  0  0  0  0  0  0  0
   -1.7123   -0.0846    0.0410 C   0  0  0  0  0  0  0  0  0  0  0  0
   -2.1267   -1.0967   -0.4728 O   0  0  0  0  0  0  0  0  0  0  0  0
   -2.5492    0.9365    0.2829 O   0  0  0  0  0  0  0  0  0  0  0  0
   -0.1652    0.1973    1.4836 H   0  0  0  0  0  0  0  0  0  0  0  0
    0.0255   -2.0989    0.5671 H   0  0  0  0  0  0  0  0  0  0  0  0
    0.3801   -1.4269   -1.0425 H   0  0  0  0  0  0  0  0  0  0  0  0
    2.0401   -0.9772    1.4792 H   0  0  0  0  0  0  0  0  0  0  0  0
    2.4670   -2.0637    0.1355 H   0  0  0  0  0  0  0  0  0  0  0  0
    3.6279    0.1168   -0.0799 H   0  0  0  0  0  0  0  0  0  0  0  0
    2.4838   -0.1330   -1.4204 H   0  0  0  0  0  0  0  0  0  0  0  0
    1.9385    1.4912    1.1058 H   0  0  0  0  0  0  0  0  0  0  0  0
    2.2931    2.1631   -0.5039 H   0  0  0  0  0  0  0  0  0  0  0  0
    0.2785    1.0414   -1.4159 H   0  0  0  0  0  0  0  0  0  0  0  0
   -0.1484    2.1279   -0.0723 H   0  0  0  0  0  0  0  0  0  0  0  0
   -3.4743    0.8157    0.0286 H   0  0  0  0  0  0  0  0  0  0  0  0
  1  2  1  0  0  0  0
  2  3  1  0  0  0  0
  3  4  1  0  0  0  0
  4  5  1  0  0  0  0
  5  6  1  0  0  0  0
  1  6  1  0  0  0  0
  1  7  1  0  0  0  0
  7  8  2  0  0  0  0
  7  9  1  0  0  0  0
  1 10  1  0  0  0  0
  2 11  1  0  0  0  0
  2 12  1  0  0  0  0
  3 13  1  0  0  0  0
  3 14  1  0  0  0  0
  4 15  1  0  0  0  0
  4 16  1  0  0  0  0
  5 17  1  0  0  0  0
  5 18  1  0  0  0  0
  6 19  1  0  0  0  0
  6 20  1  0  0  0  0
  9 21  1  0  0  0  0
M  END
$$$$
