C7H14O
APtclcactv12151716223D 0   0.00000     0.00000
 
 22 22  0  0  0  0  0  0  0  0999 V2000
   -1.2211    0.0271    0.2812 C   0  0  0  0  0  0  0  0  0  0  0  0
   -0.6707   -1.2769   -0.0578 C   0  0  0  0  0  0  0  0  0  0  0  0
    0.7756   -1.4542    0.4479 C   0  0  0  0  0  0  0  0  0  0  0  0
    1.7054   -0.7602   -0.5102 C   0  0  0  0  0  0  0  0  0  0  0  0
    2.0335    0.6805   -0.0741 C   0  0  0  0  0  0  0  0  0  0  0  0
    0.8026    1.4382    0.4592 C   0  0  0  0  0  0  0  0  0  0  0  0
   -0.4312    1.1843   -0.3639 C   0  0  0  0  0  0  0  0  0  0  0  0
   -2.5773    0.0873   -0.1650 O   0  0  0  0  0  0  0  0  0  0  0  0
   -1.2021    0.1475    1.3644 H   0  0  0  0  0  0  0  0  0  0  0  0
   -1.2972   -2.0506    0.3861 H   0  0  0  0  0  0  0  0  0  0  0  0
   -0.6826   -1.3942   -1.1414 H   0  0  0  0  0  0  0  0  0  0  0  0
    0.8738   -1.0113    1.4390 H   0  0  0  0  0  0  0  0  0  0  0  0
    1.0205   -2.5154    0.4921 H   0  0  0  0  0  0  0  0  0  0  0  0
    2.6331   -1.3288   -0.5756 H   0  0  0  0  0  0  0  0  0  0  0  0
    1.2404   -0.7332   -1.4957 H   0  0  0  0  0  0  0  0  0  0  0  0
    2.7918    0.6470    0.7082 H   0  0  0  0  0  0  0  0  0  0  0  0
    2.4372    1.2233   -0.9289 H   0  0  0  0  0  0  0  0  0  0  0  0
    0.6126    1.1242    1.4856 H   0  0  0  0  0  0  0  0  0  0  0  0
    1.0166    2.5070    0.4534 H   0  0  0  0  0  0  0  0  0  0  0  0
   -0.1440    0.9103   -1.3791 H   0  0  0  0  0  0  0  0  0  0  0  0
   -1.0487    2.0822   -0.3847 H   0  0  0  0  0  0  0  0  0  0  0  0
   -3.0166    0.9277    0.0240 H   0  0  0  0  0  0  0  0  0  0  0  0
  1  2  1  0  0  0  0
  2  3  1  0  0  0  0
  3  4  1  0  0  0  0
  4  5  1  0  0  0  0
  5  6  1  0  0  0  0
  6  7  1  0  0  0  0
  1  7  1  0  0  0  0
  1  8  1  0  0  0  0
  1  9  1  0  0  0  0
  2 10  1  0  0  0  0
  2 11  1  0  0  0  0
  3 12  1  0  0  0  0
  3 13  1  0  0  0  0
  4 14  1  0  0  0  0
  4 15  1  0  0  0  0
  5 16  1  0  0  0  0
  5 17  1  0  0  0  0
  6 18  1  0  0  0  0
  6 19  1  0  0  0  0
  7 20  1  0  0  0  0
  7 21  1  0  0  0  0
  8 22  1  0  0  0  0
M  END
$$$$
