C8H10O4
APtclcactv12151716333D 0   0.00000     0.00000
 
 22 22  0  0  0  0  0  0  0  0999 V2000
   -1.4064   -0.0466    0.0079 C   0  0  0  0  0  0  0  0  0  0  0  0
   -0.7359   -1.1584    0.2256 C   0  0  0  0  0  0  0  0  0  0  0  0
    0.7623   -1.2328    0.2779 C   0  0  0  0  0  0  0  0  0  0  0  0
    1.3743    0.0150   -0.3621 C   0  0  0  0  0  0  0  0  0  0  0  0
    0.6989    1.2527    0.2413 C   0  0  0  0  0  0  0  0  0  0  0  0
   -0.7580    1.2869   -0.2248 C   0  0  0  0  0  0  0  0  0  0  0  0
    2.8536    0.0562   -0.0776 C   0  0  0  0  0  0  0  0  0  0  0  0
    3.3265    0.9883    0.5285 O   0  0  0  0  0  0  0  0  0  0  0  0
    3.6459   -0.9426   -0.4977 O   0  0  0  0  0  0  0  0  0  0  0  0
   -2.8740   -0.1163   -0.0146 C   0  0  0  0  0  0  0  0  0  0  0  0
   -3.4347   -1.1795    0.1649 O   0  0  0  0  0  0  0  0  0  0  0  0
   -3.5984    0.9991   -0.2342 O   0  0  0  0  0  0  0  0  0  0  0  0
   -1.2961   -2.0695    0.3755 H   0  0  0  0  0  0  0  0  0  0  0  0
    1.0847   -1.3011    1.3169 H   0  0  0  0  0  0  0  0  0  0  0  0
    1.0993   -2.1179   -0.2618 H   0  0  0  0  0  0  0  0  0  0  0  0
    1.2060   -0.0057   -1.4388 H   0  0  0  0  0  0  0  0  0  0  0  0
    0.7341    1.1953    1.3292 H   0  0  0  0  0  0  0  0  0  0  0  0
    1.2130    2.1521   -0.0976 H   0  0  0  0  0  0  0  0  0  0  0  0
   -0.7918    1.5245   -1.2881 H   0  0  0  0  0  0  0  0  0  0  0  0
   -1.2976    2.0531    0.3319 H   0  0  0  0  0  0  0  0  0  0  0  0
    4.5880   -0.8719   -0.2917 H   0  0  0  0  0  0  0  0  0  0  0  0
   -4.5607    0.9036   -0.2399 H   0  0  0  0  0  0  0  0  0  0  0  0
  1  2  2  0  0  0  0
  2  3  1  0  0  0  0
  3  4  1  0  0  0  0
  4  5  1  0  0  0  0
  5  6  1  0  0  0  0
  1  6  1  0  0  0  0
  4  7  1  0  0  0  0
  7  8  2  0  0  0  0
  7  9  1  0  0  0  0
  1 10  1  0  0  0  0
 10 11  2  0  0  0  0
 10 12  1  0  0  0  0
  2 13  1  0  0  0  0
  3 14  1  0  0  0  0
  3 15  1  0  0  0  0
  4 16  1  0  0  0  0
  5 17  1  0  0  0  0
  5 18  1  0  0  0  0
  6 19  1  0  0  0  0
  6 20  1  0  0  0  0
  9 21  1  0  0  0  0
 12 22  1  0  0  0  0
M  END
$$$$
