C7H15Cl2N2O2P
APtclcactv12151716233D 0   0.00000     0.00000
 
 29 29  0  0  0  0  0  0  0  0999 V2000
    0.9748    1.1931    0.4186 C   0  0  0  0  0  0  0  0  0  0  0  0
    0.9690   -1.2279    0.3806 C   0  0  0  0  0  0  0  0  0  0  0  0
    1.9367    1.7140   -0.6510 C   0  0  0  0  0  0  0  0  0  0  0  0
    2.0178   -1.6495   -0.6506 C   0  0  0  0  0  0  0  0  0  0  0  0
   -1.7887   -2.2216    0.2936 H   0  0  0  0  0  0  0  0  0  0  0  0
   -1.4431    0.0422    1.8456 O   0  0  0  0  0  0  0  0  0  0  0  0
   -3.5498   -1.2389   -0.1354 C   0  0  0  0  0  0  0  0  0  0  0  0
   -3.5274    1.2622   -0.3691 C   0  0  0  0  0  0  0  0  0  0  0  0
   -3.9877   -0.0553   -0.9956 C   0  0  0  0  0  0  0  0  0  0  0  0
    2.7747    3.1885   -0.0390 Cl  0  0  0  0  0  0  0  0  0  0  0  0
    2.8487   -3.1464   -0.0852 Cl  0  0  0  0  0  0  0  0  0  0  0  0
   -2.0906    1.2586   -0.2913 O   0  0  0  0  0  0  0  0  0  0  0  0
    0.2920   -0.0083   -0.0800 N   0  0  0  0  0  0  0  0  0  0  0  0
   -2.0888   -1.4040   -0.2159 N   0  0  0  0  0  0  0  0  0  0  0  0
   -1.3294   -0.0115    0.3710 P   0  0  0  0  0  0  0  0  0  0  0  0
    1.5342    0.9450    1.3206 H   0  0  0  0  0  0  0  0  0  0  0  0
    0.2366    1.9614    0.6487 H   0  0  0  0  0  0  0  0  0  0  0  0
    0.2368   -2.0263    0.5014 H   0  0  0  0  0  0  0  0  0  0  0  0
    1.4563   -1.0342    1.3361 H   0  0  0  0  0  0  0  0  0  0  0  0
   -3.8372   -1.0595    0.9006 H   0  0  0  0  0  0  0  0  0  0  0  0
   -4.0368   -2.1461   -0.4929 H   0  0  0  0  0  0  0  0  0  0  0  0
   -3.8580    2.0965   -0.9878 H   0  0  0  0  0  0  0  0  0  0  0  0
   -3.9476    1.3575    0.6322 H   0  0  0  0  0  0  0  0  0  0  0  0
    2.6749    0.9457   -0.8811 H   0  0  0  0  0  0  0  0  0  0  0  0
    1.3773    1.9621   -1.5530 H   0  0  0  0  0  0  0  0  0  0  0  0
    1.5304   -1.8432   -1.6061 H   0  0  0  0  0  0  0  0  0  0  0  0
    2.7499   -0.8511   -0.7714 H   0  0  0  0  0  0  0  0  0  0  0  0
   -3.5518   -0.1524   -1.9898 H   0  0  0  0  0  0  0  0  0  0  0  0
   -5.0746   -0.0537   -1.0786 H   0  0  0  0  0  0  0  0  0  0  0  0
 13 15  1  0  0  0  0
 14 15  1  0  0  0  0
 12 15  1  0  0  0  0
  6 15  2  0  0  0  0
  1 13  1  0  0  0  0
  2 13  1  0  0  0  0
  7 14  1  0  0  0  0
  8 12  1  0  0  0  0
  1  3  1  0  0  0  0
  2  4  1  0  0  0  0
  7  9  1  0  0  0  0
  3 10  1  0  0  0  0
  4 11  1  0  0  0  0
  8  9  1  0  0  0  0
  5 14  1  0  0  0  0
  1 16  1  0  0  0  0
  1 17  1  0  0  0  0
  2 18  1  0  0  0  0
  2 19  1  0  0  0  0
  7 20  1  0  0  0  0
  7 21  1  0  0  0  0
  8 22  1  0  0  0  0
  8 23  1  0  0  0  0
  3 24  1  0  0  0  0
  3 25  1  0  0  0  0
  4 26  1  0  0  0  0
  4 27  1  0  0  0  0
  9 28  1  0  0  0  0
  9 29  1  0  0  0  0
M  END
$$$$
