C11H21NOS
APtclcactv12111704493D 0   0.00000     0.00000
 
 35 35  0  0  0  0  0  0  0  0999 V2000
   -3.1772   -1.4128    0.2442 C   0  0  0  0  0  0  0  0  0  0  0  0
   -0.3368    2.1824   -0.6902 C   0  0  0  0  0  0  0  0  0  0  0  0
   -4.7058   -1.3551    0.2148 C   0  0  0  0  0  0  0  0  0  0  0  0
   -0.5085    3.0225    0.5769 C   0  0  0  0  0  0  0  0  0  0  0  0
   -0.4004   -1.2492    0.2258 O   0  0  0  0  0  0  0  0  0  0  0  0
    1.8935    0.0914    1.1817 C   0  0  0  0  0  0  0  0  0  0  0  0
    3.3909   -0.2086    1.2755 C   0  0  0  0  0  0  0  0  0  0  0  0
    1.9155   -0.5534   -1.2321 C   0  0  0  0  0  0  0  0  0  0  0  0
    3.4129   -0.8533   -1.1383 C   0  0  0  0  0  0  0  0  0  0  0  0
    3.7530   -1.3133    0.2807 C   0  0  0  0  0  0  0  0  0  0  0  0
   -0.7794   -0.1336   -0.0757 C   0  0  0  0  0  0  0  0  0  0  0  0
    1.5534    0.5513   -0.2373 C   0  0  0  0  0  0  0  0  0  0  0  0
   -2.5038    0.2119   -0.1837 S   0  0  0  0  0  0  0  0  0  0  0  0
    0.1197    0.8385   -0.3271 N   0  0  0  0  0  0  0  0  0  0  0  0
   -5.1114   -2.3335    0.4725 H   0  0  0  0  0  0  0  0  0  0  0  0
   -5.0554   -0.6157    0.9354 H   0  0  0  0  0  0  0  0  0  0  0  0
   -5.0398   -1.0750   -0.7842 H   0  0  0  0  0  0  0  0  0  0  0  0
   -2.8433   -1.6929    1.2433 H   0  0  0  0  0  0  0  0  0  0  0  0
   -2.8276   -2.1522   -0.4764 H   0  0  0  0  0  0  0  0  0  0  0  0
   -1.2454    2.5519    1.2278 H   0  0  0  0  0  0  0  0  0  0  0  0
    0.4459    3.0916    1.0990 H   0  0  0  0  0  0  0  0  0  0  0  0
   -0.8481    4.0223    0.3068 H   0  0  0  0  0  0  0  0  0  0  0  0
   -1.2912    2.1132   -1.2123 H   0  0  0  0  0  0  0  0  0  0  0  0
    0.4001    2.6530   -1.3411 H   0  0  0  0  0  0  0  0  0  0  0  0
    2.1199    1.4523   -0.4728 H   0  0  0  0  0  0  0  0  0  0  0  0
    1.3271   -0.8096    1.4172 H   0  0  0  0  0  0  0  0  0  0  0  0
    1.6356    0.8784    1.8904 H   0  0  0  0  0  0  0  0  0  0  0  0
    3.9574    0.6924    1.0400 H   0  0  0  0  0  0  0  0  0  0  0  0
    3.6332   -0.5363    2.2864 H   0  0  0  0  0  0  0  0  0  0  0  0
    1.6732   -0.2257   -2.2430 H   0  0  0  0  0  0  0  0  0  0  0  0
    1.3490   -1.4543   -0.9966 H   0  0  0  0  0  0  0  0  0  0  0  0
    3.6709   -1.6403   -1.8469 H   0  0  0  0  0  0  0  0  0  0  0  0
    3.9794    0.0476   -1.3738 H   0  0  0  0  0  0  0  0  0  0  0  0
    4.8198   -1.5270    0.3476 H   0  0  0  0  0  0  0  0  0  0  0  0
    3.1865   -2.2142    0.5162 H   0  0  0  0  0  0  0  0  0  0  0  0
  1  3  1  0  0  0  0
  1 13  1  0  0  0  0
  5 11  2  0  0  0  0
 11 13  1  0  0  0  0
 11 14  1  0  0  0  0
  2  4  1  0  0  0  0
  2 14  1  0  0  0  0
 12 14  1  0  0  0  0
  6 12  1  0  0  0  0
  8 12  1  0  0  0  0
  6  7  1  0  0  0  0
  7 10  1  0  0  0  0
  8  9  1  0  0  0  0
  9 10  1  0  0  0  0
  3 15  1  0  0  0  0
  3 16  1  0  0  0  0
  3 17  1  0  0  0  0
  1 18  1  0  0  0  0
  1 19  1  0  0  0  0
  4 20  1  0  0  0  0
  4 21  1  0  0  0  0
  4 22  1  0  0  0  0
  2 23  1  0  0  0  0
  2 24  1  0  0  0  0
 12 25  1  0  0  0  0
  6 26  1  0  0  0  0
  6 27  1  0  0  0  0
  7 28  1  0  0  0  0
  7 29  1  0  0  0  0
  8 30  1  0  0  0  0
  8 31  1  0  0  0  0
  9 32  1  0  0  0  0
  9 33  1  0  0  0  0
 10 34  1  0  0  0  0
 10 35  1  0  0  0  0
M  END
$$$$
