C3H7NO2S
APtclcactv12211716353D 0   0.00000     0.00000
 
 14 13  0  0  1  0  0  0  0  0999 V2000
    0.0728    1.6171   -0.3595 N   0  0  0  0  0  0  0  0  0  0  0  0
   -0.1760    0.1714   -0.4384 C   0  0  1  0  0  0  0  0  0  0  0  0
   -0.0236   -0.1680   -1.4629 H   0  0  0  0  0  0  0  0  0  0  0  0
    0.7910   -0.5640    0.4917 C   0  0  0  0  0  0  0  0  0  0  0  0
    2.4982   -0.2157   -0.0132 S   0  0  0  0  0  0  0  0  0  0  0  0
   -1.5942   -0.1179   -0.0190 C   0  0  0  0  0  0  0  0  0  0  0  0
   -2.2055    0.6886    0.6411 O   0  0  0  0  0  0  0  0  0  0  0  0
   -2.1784   -1.2716   -0.3789 O   0  0  0  0  0  0  0  0  0  0  0  0
   -0.5092    2.1203   -1.0123 H   0  0  0  0  0  0  0  0  0  0  0  0
   -0.0621    1.9563    0.5812 H   0  0  0  0  0  0  0  0  0  0  0  0
    0.6386   -0.2245    1.5162 H   0  0  0  0  0  0  0  0  0  0  0  0
    0.6064   -1.6366    0.4331 H   0  0  0  0  0  0  0  0  0  0  0  0
    3.2253   -0.9147    0.8766 H   0  0  0  0  0  0  0  0  0  0  0  0
   -3.0893   -1.4123   -0.0863 H   0  0  0  0  0  0  0  0  0  0  0  0
  1  2  1  0  0  0  0
  2  3  1  0  0  0  0
  2  4  1  0  0  0  0
  4  5  1  0  0  0  0
  2  6  1  0  0  0  0
  6  7  2  0  0  0  0
  6  8  1  0  0  0  0
  1  9  1  0  0  0  0
  1 10  1  0  0  0  0
  4 11  1  0  0  0  0
  4 12  1  0  0  0  0
  5 13  1  0  0  0  0
  8 14  1  0  0  0  0
M  END
$$$$
