C10H16O4
APtclcactv12211717283D 0   0.00000     0.00000
 
 30 30  0  0  0  0  0  0  0  0999 V2000
   -2.0302    1.4685    1.0079 C   0  0  0  0  0  0  0  0  0  0  0  0
    0.1949    2.2644   -0.0446 C   0  0  0  0  0  0  0  0  0  0  0  0
    0.2218    0.2375   -1.5205 C   0  0  0  0  0  0  0  0  0  0  0  0
    2.4465   -1.4054   -0.5511 O   0  0  0  0  0  0  0  0  0  0  0  0
   -2.1231   -1.7369   -0.2959 O   0  0  0  0  0  0  0  0  0  0  0  0
    0.6009   -1.1080    1.4426 C   0  0  0  0  0  0  0  0  0  0  0  0
   -0.8324   -0.6142    1.7600 C   0  0  0  0  0  0  0  0  0  0  0  0
    3.3843    0.5880   -0.3767 O   0  0  0  0  0  0  0  0  0  0  0  0
   -2.5431    0.0558   -1.5180 O   0  0  0  0  0  0  0  0  0  0  0  0
   -1.9913   -0.5461   -0.4527 C   0  0  0  0  0  0  0  0  0  0  0  0
    2.4036   -0.2855   -0.0994 C   0  0  0  0  0  0  0  0  0  0  0  0
    1.2492    0.1304    0.7754 C   0  0  0  0  0  0  0  0  0  0  0  0
    4.1038    0.2754   -0.9421 H   0  0  0  0  0  0  0  0  0  0  0  0
   -3.0366   -0.5048   -2.1322 H   0  0  0  0  0  0  0  0  0  0  0  0
   -1.2073    0.2634    0.5480 C   0  0  0  0  0  0  0  0  0  0  0  0
    0.1162    0.7368   -0.0781 C   0  0  0  0  0  0  0  0  0  0  0  0
    1.1292   -1.3745    2.3580 H   0  0  0  0  0  0  0  0  0  0  0  0
    0.5750   -1.9502    0.7511 H   0  0  0  0  0  0  0  0  0  0  0  0
   -1.5165   -1.4584    1.8459 H   0  0  0  0  0  0  0  0  0  0  0  0
   -0.8381   -0.0227    2.6756 H   0  0  0  0  0  0  0  0  0  0  0  0
    1.5796    0.8421    1.5319 H   0  0  0  0  0  0  0  0  0  0  0  0
   -1.4549    2.0464    1.7313 H   0  0  0  0  0  0  0  0  0  0  0  0
   -2.2679    2.0954    0.1486 H   0  0  0  0  0  0  0  0  0  0  0  0
   -2.9538    1.1221    1.4717 H   0  0  0  0  0  0  0  0  0  0  0  0
    1.1458    2.5886   -0.4675 H   0  0  0  0  0  0  0  0  0  0  0  0
   -0.6243    2.6834   -0.6289 H   0  0  0  0  0  0  0  0  0  0  0  0
    0.1194    2.6096    0.9866 H   0  0  0  0  0  0  0  0  0  0  0  0
    0.1056   -0.8461   -1.5393 H   0  0  0  0  0  0  0  0  0  0  0  0
   -0.5618    0.6974   -2.1225 H   0  0  0  0  0  0  0  0  0  0  0  0
    1.1970    0.5055   -1.9272 H   0  0  0  0  0  0  0  0  0  0  0  0
  6  7  1  0  0  0  0
  6 12  1  0  0  0  0
  7 15  1  0  0  0  0
 12 16  1  0  0  0  0
 11 12  1  0  0  0  0
 15 16  1  0  0  0  0
  1 15  1  0  0  0  0
 10 15  1  0  0  0  0
  2 16  1  0  0  0  0
  3 16  1  0  0  0  0
  9 10  1  0  0  0  0
  5 10  2  0  0  0  0
  8 11  1  0  0  0  0
  4 11  2  0  0  0  0
  6 17  1  0  0  0  0
  6 18  1  0  0  0  0
  7 19  1  0  0  0  0
  7 20  1  0  0  0  0
 12 21  1  0  0  0  0
  1 22  1  0  0  0  0
  1 23  1  0  0  0  0
  1 24  1  0  0  0  0
  2 25  1  0  0  0  0
  2 26  1  0  0  0  0
  2 27  1  0  0  0  0
  3 28  1  0  0  0  0
  3 29  1  0  0  0  0
  3 30  1  0  0  0  0
  8 13  1  0  0  0  0
  9 14  1  0  0  0  0
M  END
$$$$
