C9H11NO3
APtclcactv12151716463D 0   0.00000     0.00000
 
 24 24  0  0  1  0  0  0  0  0999 V2000
   -1.4965    1.4457    0.8336 N   0  0  0  0  0  0  0  0  0  0  0  0
   -1.7313    0.0557    0.4206 C   0  0  2  0  0  0  0  0  0  0  0  0
   -1.4362   -0.6173    1.2256 H   0  0  0  0  0  0  0  0  0  0  0  0
   -0.9047   -0.2515   -0.8297 C   0  0  0  0  0  0  0  0  0  0  0  0
    0.5623   -0.1781   -0.4926 C   0  0  0  0  0  0  0  0  0  0  0  0
    1.2276   -1.3090   -0.0565 C   0  0  0  0  0  0  0  0  0  0  0  0
    2.5723   -1.2444    0.2531 C   0  0  0  0  0  0  0  0  0  0  0  0
    3.2552   -0.0434    0.1262 C   0  0  0  0  0  0  0  0  0  0  0  0
    2.5854    1.0898   -0.3116 C   0  0  0  0  0  0  0  0  0  0  0  0
    1.2419    1.0186   -0.6254 C   0  0  0  0  0  0  0  0  0  0  0  0
    4.5780    0.0228    0.4306 O   0  0  0  0  0  0  0  0  0  0  0  0
   -3.1944   -0.1374    0.1155 C   0  0  0  0  0  0  0  0  0  0  0  0
   -3.8927    0.8189   -0.1250 O   0  0  0  0  0  0  0  0  0  0  0  0
   -3.7218   -1.3717    0.1108 O   0  0  0  0  0  0  0  0  0  0  0  0
   -0.5348    1.5846    1.1055 H   0  0  0  0  0  0  0  0  0  0  0  0
   -1.7625    2.0896    0.1037 H   0  0  0  0  0  0  0  0  0  0  0  0
   -1.1456   -1.2524   -1.1877 H   0  0  0  0  0  0  0  0  0  0  0  0
   -1.1360    0.4776   -1.6063 H   0  0  0  0  0  0  0  0  0  0  0  0
    0.6954   -2.2436    0.0425 H   0  0  0  0  0  0  0  0  0  0  0  0
    3.0915   -2.1279    0.5941 H   0  0  0  0  0  0  0  0  0  0  0  0
    3.1148    2.0259   -0.4113 H   0  0  0  0  0  0  0  0  0  0  0  0
    0.7200    1.9006   -0.9663 H   0  0  0  0  0  0  0  0  0  0  0  0
    5.1633   -0.1614   -0.3168 H   0  0  0  0  0  0  0  0  0  0  0  0
   -4.6648   -1.4454   -0.0904 H   0  0  0  0  0  0  0  0  0  0  0  0
  1  2  1  0  0  0  0
  2  3  1  0  0  0  0
  2  4  1  0  0  0  0
  4  5  1  0  0  0  0
  5  6  2  0  0  0  0
  6  7  1  0  0  0  0
  7  8  2  0  0  0  0
  8  9  1  0  0  0  0
  9 10  2  0  0  0  0
  5 10  1  0  0  0  0
  8 11  1  0  0  0  0
  2 12  1  0  0  0  0
 12 13  2  0  0  0  0
 12 14  1  0  0  0  0
  1 15  1  0  0  0  0
  1 16  1  0  0  0  0
  4 17  1  0  0  0  0
  4 18  1  0  0  0  0
  6 19  1  0  0  0  0
  7 20  1  0  0  0  0
  9 21  1  0  0  0  0
 10 22  1  0  0  0  0
 11 23  1  0  0  0  0
 14 24  1  0  0  0  0
M  END
$$$$
