C3H4Cl2O2
APtclcactv12101715363D 0   0.00000     0.00000
 
 11 10  0  0  0  0  0  0  0  0999 V2000
    0.3138   -0.4416    1.8150 C   0  0  0  0  0  0  0  0  0  0  0  0
   -2.0973   -0.5755    0.5990 O   0  0  0  0  0  0  0  0  0  0  0  0
   -1.6337    0.7752   -1.0875 O   0  0  0  0  0  0  0  0  0  0  0  0
   -1.2633    0.0186   -0.0424 C   0  0  0  0  0  0  0  0  0  0  0  0
   -2.5788    0.8138   -1.2885 H   0  0  0  0  0  0  0  0  0  0  0  0
    1.0123    1.4853    0.0178 Cl  0  0  0  0  0  0  0  0  0  0  0  0
    0.9722   -1.3800   -0.6582 Cl  0  0  0  0  0  0  0  0  0  0  0  0
    0.1926   -0.0898    0.3309 C   0  0  0  0  0  0  0  0  0  0  0  0
   -0.1575    0.3384    2.4129 H   0  0  0  0  0  0  0  0  0  0  0  0
   -0.1817   -1.3939    2.0043 H   0  0  0  0  0  0  0  0  0  0  0  0
    1.3669   -0.5201    2.0850 H   0  0  0  0  0  0  0  0  0  0  0  0
  6  8  1  0  0  0  0
  7  8  1  0  0  0  0
  3  4  1  0  0  0  0
  2  4  2  0  0  0  0
  4  8  1  0  0  0  0
  1  8  1  0  0  0  0
  1  9  1  0  0  0  0
  1 10  1  0  0  0  0
  1 11  1  0  0  0  0
  3  5  1  0  0  0  0
M  END
$$$$
