C6H12N2O3
APtclcactv12211716573D 0   0.00000     0.00000
 
 23 22  0  0  0  0  0  0  0  0999 V2000
    0.7185   -0.4744   -0.0131 C   0  0  0  0  0  0  0  0  0  0  0  0
    1.8330    0.5732    0.0214 C   0  0  0  0  0  0  0  0  0  0  0  0
   -3.7147   -0.1374   -1.2275 C   0  0  0  0  0  0  0  0  0  0  0  0
   -3.7492   -0.2952    1.1884 C   0  0  0  0  0  0  0  0  0  0  0  0
   -1.7089   -1.4804   -0.0442 H   0  0  0  0  0  0  0  0  0  0  0  0
   -0.6783    1.4267    0.0548 O   0  0  0  0  0  0  0  0  0  0  0  0
    3.2295   -1.3234   -0.0464 O   0  0  0  0  0  0  0  0  0  0  0  0
    4.3017    0.6078    0.0188 O   0  0  0  0  0  0  0  0  0  0  0  0
   -0.6208    0.2159    0.0128 C   0  0  0  0  0  0  0  0  0  0  0  0
    3.1723   -0.1172   -0.0046 C   0  0  0  0  0  0  0  0  0  0  0  0
    5.1367    0.1205    0.0006 H   0  0  0  0  0  0  0  0  0  0  0  0
   -1.7548   -0.5121   -0.0106 N   0  0  0  0  0  0  0  0  0  0  0  0
   -2.9688    0.1137    0.0129 N   0  0  0  0  0  0  0  0  0  0  0  0
    0.8044   -1.0665   -0.9243 H   0  0  0  0  0  0  0  0  0  0  0  0
    0.8072   -1.1281    0.8546 H   0  0  0  0  0  0  0  0  0  0  0  0
    1.7443    1.2268   -0.8464 H   0  0  0  0  0  0  0  0  0  0  0  0
    1.7470    1.1652    0.9325 H   0  0  0  0  0  0  0  0  0  0  0  0
   -3.8761   -1.2090   -1.3438 H   0  0  0  0  0  0  0  0  0  0  0  0
   -4.6771    0.3723   -1.1823 H   0  0  0  0  0  0  0  0  0  0  0  0
   -3.1442    0.2384   -2.0769 H   0  0  0  0  0  0  0  0  0  0  0  0
   -3.2039   -0.0342    2.0953 H   0  0  0  0  0  0  0  0  0  0  0  0
   -4.7110    0.2177    1.1824 H   0  0  0  0  0  0  0  0  0  0  0  0
   -3.9119   -1.3726    1.1596 H   0  0  0  0  0  0  0  0  0  0  0  0
  1  9  1  0  0  0  0
  1  2  1  0  0  0  0
  9 12  1  0  0  0  0
  6  9  2  0  0  0  0
 12 13  1  0  0  0  0
  2 10  1  0  0  0  0
  3 13  1  0  0  0  0
  4 13  1  0  0  0  0
  8 10  1  0  0  0  0
  7 10  2  0  0  0  0
  1 14  1  0  0  0  0
  1 15  1  0  0  0  0
  5 12  1  0  0  0  0
  2 16  1  0  0  0  0
  2 17  1  0  0  0  0
  3 18  1  0  0  0  0
  3 19  1  0  0  0  0
  3 20  1  0  0  0  0
  4 21  1  0  0  0  0
  4 22  1  0  0  0  0
  4 23  1  0  0  0  0
  8 11  1  0  0  0  0
M  END
$$$$
