C14H10Cl4
APtclcactv12091702563D 0   0.00000     0.00000
 
 28 29  0  0  0  0  0  0  0  0999 V2000
    1.4404   -1.0087   -0.8120 C   0  0  0  0  0  0  0  0  0  0  0  0
    2.4486    1.0876   -0.2428 C   0  0  0  0  0  0  0  0  0  0  0  0
   -1.1175   -0.5058    0.6200 C   0  0  0  0  0  0  0  0  0  0  0  0
   -2.1446   -0.0166   -1.4873 C   0  0  0  0  0  0  0  0  0  0  0  0
    2.6341   -1.6545   -0.5507 C   0  0  0  0  0  0  0  0  0  0  0  0
    3.6427    0.4429    0.0193 C   0  0  0  0  0  0  0  0  0  0  0  0
   -2.1715   -1.3403    0.9407 C   0  0  0  0  0  0  0  0  0  0  0  0
   -3.1992   -0.8509   -1.1677 C   0  0  0  0  0  0  0  0  0  0  0  0
    1.3476    0.3620   -0.6579 C   0  0  0  0  0  0  0  0  0  0  0  0
   -1.1039    0.1557   -0.5938 C   0  0  0  0  0  0  0  0  0  0  0  0
    3.7363   -0.9289   -0.1347 C   0  0  0  0  0  0  0  0  0  0  0  0
   -3.2131   -1.5136    0.0467 C   0  0  0  0  0  0  0  0  0  0  0  0
    0.0457    1.0655   -0.9429 C   0  0  0  0  0  0  0  0  0  0  0  0
   -0.0396    2.3408   -0.1020 C   0  0  0  0  0  0  0  0  0  0  0  0
   -1.6045    3.1738   -0.4306 Cl  0  0  0  0  0  0  0  0  0  0  0  0
    0.0588    1.9150    1.6472 Cl  0  0  0  0  0  0  0  0  0  0  0  0
    5.2358   -1.7394    0.1943 Cl  0  0  0  0  0  0  0  0  0  0  0  0
   -4.5371   -2.5621    0.4486 Cl  0  0  0  0  0  0  0  0  0  0  0  0
   -0.0037    1.3238   -2.0007 H   0  0  0  0  0  0  0  0  0  0  0  0
    0.7861    3.0032   -0.3617 H   0  0  0  0  0  0  0  0  0  0  0  0
    0.5813   -1.5744   -1.1410 H   0  0  0  0  0  0  0  0  0  0  0  0
    2.3754    2.1584   -0.1225 H   0  0  0  0  0  0  0  0  0  0  0  0
   -0.3065   -0.3670    1.3196 H   0  0  0  0  0  0  0  0  0  0  0  0
   -2.1334    0.5005   -2.4354 H   0  0  0  0  0  0  0  0  0  0  0  0
    2.7064   -2.7253   -0.6707 H   0  0  0  0  0  0  0  0  0  0  0  0
    4.5029    1.0099    0.3432 H   0  0  0  0  0  0  0  0  0  0  0  0
   -2.1819   -1.8574    1.8888 H   0  0  0  0  0  0  0  0  0  0  0  0
   -4.0123   -0.9852   -1.8656 H   0  0  0  0  0  0  0  0  0  0  0  0
  9 13  1  0  0  0  0
 10 13  1  0  0  0  0
 13 14  1  0  0  0  0
  1  9  2  0  0  0  0
  2  9  1  0  0  0  0
  3 10  2  0  0  0  0
  4 10  1  0  0  0  0
 14 15  1  0  0  0  0
 14 16  1  0  0  0  0
  1  5  1  0  0  0  0
  2  6  2  0  0  0  0
  3  7  1  0  0  0  0
  4  8  2  0  0  0  0
  5 11  2  0  0  0  0
  7 12  2  0  0  0  0
 11 17  1  0  0  0  0
 12 18  1  0  0  0  0
  6 11  1  0  0  0  0
  8 12  1  0  0  0  0
 13 19  1  0  0  0  0
 14 20  1  0  0  0  0
  1 21  1  0  0  0  0
  2 22  1  0  0  0  0
  3 23  1  0  0  0  0
  4 24  1  0  0  0  0
  5 25  1  0  0  0  0
  6 26  1  0  0  0  0
  7 27  1  0  0  0  0
  8 28  1  0  0  0  0
M  END
$$$$
