C10H20O
APtclcactv12211717303D 0   0.00000     0.00000
 
 31 30  0  0  0  0  0  0  0  0999 V2000
    5.0263    0.2579   -0.2495 C   0  0  0  0  0  0  0  0  0  0  0  0
    3.7727   -0.5761   -0.1870 C   0  0  0  0  0  0  0  0  0  0  0  0
    2.5492    0.3425   -0.1731 C   0  0  0  0  0  0  0  0  0  0  0  0
    1.2764   -0.5041   -0.1097 C   0  0  0  0  0  0  0  0  0  0  0  0
    0.0530    0.4145   -0.0958 C   0  0  0  0  0  0  0  0  0  0  0  0
   -1.2198   -0.4322   -0.0323 C   0  0  0  0  0  0  0  0  0  0  0  0
   -2.4433    0.4864   -0.0184 C   0  0  0  0  0  0  0  0  0  0  0  0
   -3.7161   -0.3603    0.0450 C   0  0  0  0  0  0  0  0  0  0  0  0
   -4.9395    0.5583    0.0589 C   0  0  0  0  0  0  0  0  0  0  0  0
   -6.2123   -0.2884    0.1224 C   0  0  0  0  0  0  0  0  0  0  0  0
    5.8882    0.1160    0.5844 O   0  0  0  0  0  0  0  0  0  0  0  0
    5.1560    0.9794   -1.0427 H   0  0  0  0  0  0  0  0  0  0  0  0
    3.7269   -1.2291   -1.0585 H   0  0  0  0  0  0  0  0  0  0  0  0
    3.7834   -1.1807    0.7199 H   0  0  0  0  0  0  0  0  0  0  0  0
    2.5950    0.9956    0.6984 H   0  0  0  0  0  0  0  0  0  0  0  0
    2.5385    0.9472   -1.0800 H   0  0  0  0  0  0  0  0  0  0  0  0
    1.2306   -1.1572   -0.9812 H   0  0  0  0  0  0  0  0  0  0  0  0
    1.2871   -1.1088    0.7972 H   0  0  0  0  0  0  0  0  0  0  0  0
    0.0988    1.0675    0.7757 H   0  0  0  0  0  0  0  0  0  0  0  0
    0.0423    1.0191   -1.0027 H   0  0  0  0  0  0  0  0  0  0  0  0
   -1.2656   -1.0853   -0.9038 H   0  0  0  0  0  0  0  0  0  0  0  0
   -1.2091   -1.0368    0.8746 H   0  0  0  0  0  0  0  0  0  0  0  0
   -2.3975    1.1394    0.8531 H   0  0  0  0  0  0  0  0  0  0  0  0
   -2.4540    1.0910   -0.9253 H   0  0  0  0  0  0  0  0  0  0  0  0
   -3.7619   -1.0133   -0.8265 H   0  0  0  0  0  0  0  0  0  0  0  0
   -3.7054   -0.9649    0.9519 H   0  0  0  0  0  0  0  0  0  0  0  0
   -4.8937    1.2113    0.9304 H   0  0  0  0  0  0  0  0  0  0  0  0
   -4.9502    1.1629   -0.8480 H   0  0  0  0  0  0  0  0  0  0  0  0
   -6.2016   -0.8930    1.0293 H   0  0  0  0  0  0  0  0  0  0  0  0
   -7.0839    0.3660    0.1323 H   0  0  0  0  0  0  0  0  0  0  0  0
   -6.2581   -0.9414   -0.7491 H   0  0  0  0  0  0  0  0  0  0  0  0
  1  2  1  0  0  0  0
  2  3  1  0  0  0  0
  3  4  1  0  0  0  0
  4  5  1  0  0  0  0
  5  6  1  0  0  0  0
  6  7  1  0  0  0  0
  7  8  1  0  0  0  0
  8  9  1  0  0  0  0
  9 10  1  0  0  0  0
  1 11  2  0  0  0  0
  1 12  1  0  0  0  0
  2 13  1  0  0  0  0
  2 14  1  0  0  0  0
  3 15  1  0  0  0  0
  3 16  1  0  0  0  0
  4 17  1  0  0  0  0
  4 18  1  0  0  0  0
  5 19  1  0  0  0  0
  5 20  1  0  0  0  0
  6 21  1  0  0  0  0
  6 22  1  0  0  0  0
  7 23  1  0  0  0  0
  7 24  1  0  0  0  0
  8 25  1  0  0  0  0
  8 26  1  0  0  0  0
  9 27  1  0  0  0  0
  9 28  1  0  0  0  0
 10 29  1  0  0  0  0
 10 30  1  0  0  0  0
 10 31  1  0  0  0  0
M  END
$$$$
