C12Cl10
APtclcactv12141705303D 0   0.00000     0.00000
 
 22 23  0  0  0  0  0  0  0  0999 V2000
    0.5771   -1.9246   -1.9101 Cl  0  0  0  0  0  0  0  0  0  0  0  0
    1.4410   -0.8562   -0.8490 C   0  0  0  0  0  0  0  0  0  0  0  0
    2.8233   -0.8512   -0.8468 C   0  0  0  0  0  0  0  0  0  0  0  0
    3.5137    0.0008   -0.0006 C   0  0  0  0  0  0  0  0  0  0  0  0
    2.8237    0.8516    0.8470 C   0  0  0  0  0  0  0  0  0  0  0  0
    1.4414    0.8545    0.8521 C   0  0  0  0  0  0  0  0  0  0  0  0
    0.7417    0.0024   -0.0016 C   0  0  0  0  0  0  0  0  0  0  0  0
   -0.7417    0.0018   -0.0006 C   0  0  0  0  0  0  0  0  0  0  0  0
   -1.4421    0.8557   -0.8519 C   0  0  0  0  0  0  0  0  0  0  0  0
   -2.8244    0.8510   -0.8476 C   0  0  0  0  0  0  0  0  0  0  0  0
   -3.5137   -0.0000    0.0005 C   0  0  0  0  0  0  0  0  0  0  0  0
   -2.8226   -0.8501    0.8480 C   0  0  0  0  0  0  0  0  0  0  0  0
   -1.4403   -0.8567    0.8474 C   0  0  0  0  0  0  0  0  0  0  0  0
   -0.5755   -1.9231    1.9098 Cl  0  0  0  0  0  0  0  0  0  0  0  0
   -3.6938   -1.9132    1.9083 Cl  0  0  0  0  0  0  0  0  0  0  0  0
   -5.2497   -0.0008    0.0016 Cl  0  0  0  0  0  0  0  0  0  0  0  0
   -3.6979    1.9138   -1.9064 Cl  0  0  0  0  0  0  0  0  0  0  0  0
   -0.5796    1.9232   -1.9150 Cl  0  0  0  0  0  0  0  0  0  0  0  0
    0.5781    1.9209    1.9156 Cl  0  0  0  0  0  0  0  0  0  0  0  0
    3.6963    1.9156    1.9054 Cl  0  0  0  0  0  0  0  0  0  0  0  0
    5.2497    0.0019   -0.0022 Cl  0  0  0  0  0  0  0  0  0  0  0  0
    3.6954   -1.9149   -1.9058 Cl  0  0  0  0  0  0  0  0  0  0  0  0
  1  2  1  0  0  0  0
  2  3  2  0  0  0  0
  3  4  1  0  0  0  0
  4  5  2  0  0  0  0
  5  6  1  0  0  0  0
  6  7  2  0  0  0  0
  2  7  1  0  0  0  0
  7  8  1  0  0  0  0
  8  9  2  0  0  0  0
  9 10  1  0  0  0  0
 10 11  2  0  0  0  0
 11 12  1  0  0  0  0
 12 13  2  0  0  0  0
  8 13  1  0  0  0  0
 13 14  1  0  0  0  0
 12 15  1  0  0  0  0
 11 16  1  0  0  0  0
 10 17  1  0  0  0  0
  9 18  1  0  0  0  0
  6 19  1  0  0  0  0
  5 20  1  0  0  0  0
  4 21  1  0  0  0  0
  3 22  1  0  0  0  0
M  END
$$$$
