C8H19O3PS2
APtclcactv12151716413D 0   0.00000     0.00000
 
 33 32  0  0  0  0  0  0  0  0999 V2000
   -0.5476   -1.1967   -1.1808 C   0  0  0  0  0  0  0  0  0  0  0  0
    3.0222   -1.8284    0.6203 C   0  0  0  0  0  0  0  0  0  0  0  0
    0.4707    2.7597    0.0701 C   0  0  0  0  0  0  0  0  0  0  0  0
   -1.6299   -0.2114   -0.7350 C   0  0  0  0  0  0  0  0  0  0  0  0
   -4.2109    0.1871    0.3791 C   0  0  0  0  0  0  0  0  0  0  0  0
    3.0665   -2.8252    1.7802 C   0  0  0  0  0  0  0  0  0  0  0  0
   -0.3588    3.5692    1.0689 C   0  0  0  0  0  0  0  0  0  0  0  0
   -5.4868   -0.4339    0.9511 C   0  0  0  0  0  0  0  0  0  0  0  0
    3.0831    1.1170   -0.4236 O   0  0  0  0  0  0  0  0  0  0  0  0
    2.1073   -0.7757    0.9315 O   0  0  0  0  0  0  0  0  0  0  0  0
    0.8361    1.5092    0.6573 O   0  0  0  0  0  0  0  0  0  0  0  0
    1.8100    0.4516   -0.0672 P   0  0  0  0  0  0  0  0  0  0  0  0
    0.8776   -0.2782   -1.8257 S   0  0  0  0  0  0  0  0  0  0  0  0
   -3.0551   -1.1299   -0.0901 S   0  0  0  0  0  0  0  0  0  0  0  0
   -0.2348   -1.8023   -0.3302 H   0  0  0  0  0  0  0  0  0  0  0  0
   -0.9456   -1.8448   -1.9616 H   0  0  0  0  0  0  0  0  0  0  0  0
    4.0165   -1.4106    0.4621 H   0  0  0  0  0  0  0  0  0  0  0  0
    2.6943   -2.3389   -0.2852 H   0  0  0  0  0  0  0  0  0  0  0  0
   -0.1176    2.5805   -0.8298 H   0  0  0  0  0  0  0  0  0  0  0  0
    1.3713    3.3162   -0.1894 H   0  0  0  0  0  0  0  0  0  0  0  0
   -1.2319    0.4368    0.0457 H   0  0  0  0  0  0  0  0  0  0  0  0
   -1.9426    0.3942   -1.5856 H   0  0  0  0  0  0  0  0  0  0  0  0
    3.7644   -3.6281    1.5428 H   0  0  0  0  0  0  0  0  0  0  0  0
    3.3944   -2.3146    2.6857 H   0  0  0  0  0  0  0  0  0  0  0  0
    2.0723   -3.2429    1.9384 H   0  0  0  0  0  0  0  0  0  0  0  0
   -0.6375    4.5230    0.6210 H   0  0  0  0  0  0  0  0  0  0  0  0
   -1.2595    3.0127    1.3284 H   0  0  0  0  0  0  0  0  0  0  0  0
    0.2294    3.7484    1.9688 H   0  0  0  0  0  0  0  0  0  0  0  0
   -4.4590    0.7828   -0.4994 H   0  0  0  0  0  0  0  0  0  0  0  0
   -3.7483    0.8253    1.1319 H   0  0  0  0  0  0  0  0  0  0  0  0
   -5.9494   -1.0722    0.1983 H   0  0  0  0  0  0  0  0  0  0  0  0
   -5.2387   -1.0296    1.8296 H   0  0  0  0  0  0  0  0  0  0  0  0
   -6.1813    0.3574    1.2331 H   0  0  0  0  0  0  0  0  0  0  0  0
 12 13  1  0  0  0  0
  1 13  1  0  0  0  0
  4 14  1  0  0  0  0
  5 14  1  0  0  0  0
 10 12  1  0  0  0  0
 11 12  1  0  0  0  0
  9 12  2  0  0  0  0
  2 10  1  0  0  0  0
  3 11  1  0  0  0  0
  1  4  1  0  0  0  0
  2  6  1  0  0  0  0
  3  7  1  0  0  0  0
  5  8  1  0  0  0  0
  1 15  1  0  0  0  0
  1 16  1  0  0  0  0
  2 17  1  0  0  0  0
  2 18  1  0  0  0  0
  3 19  1  0  0  0  0
  3 20  1  0  0  0  0
  4 21  1  0  0  0  0
  4 22  1  0  0  0  0
  6 23  1  0  0  0  0
  6 24  1  0  0  0  0
  6 25  1  0  0  0  0
  7 26  1  0  0  0  0
  7 27  1  0  0  0  0
  7 28  1  0  0  0  0
  5 29  1  0  0  0  0
  5 30  1  0  0  0  0
  8 31  1  0  0  0  0
  8 32  1  0  0  0  0
  8 33  1  0  0  0  0
M  END
$$$$
