C5H13O3PS2
APtclcactv12211716473D 0   0.00000     0.00000
 
 24 23  0  0  0  0  0  0  0  0999 V2000
    0.9067   -1.1985    0.6782 C   0  0  0  0  0  0  0  0  0  0  0  0
    1.8310   -0.0173    0.3763 C   0  0  0  0  0  0  0  0  0  0  0  0
   -2.6382   -2.0127   -1.1184 C   0  0  0  0  0  0  0  0  0  0  0  0
   -0.6346    2.7223    0.0799 C   0  0  0  0  0  0  0  0  0  0  0  0
    4.3460    0.8876   -0.5817 C   0  0  0  0  0  0  0  0  0  0  0  0
   -3.0125    0.7148    0.3703 O   0  0  0  0  0  0  0  0  0  0  0  0
   -1.8772   -0.8148   -1.2858 O   0  0  0  0  0  0  0  0  0  0  0  0
   -0.8746    1.5407   -0.6872 O   0  0  0  0  0  0  0  0  0  0  0  0
   -1.6857    0.2733   -0.1147 P   0  0  0  0  0  0  0  0  0  0  0  0
   -0.6011   -0.5952    1.4865 S   0  0  0  0  0  0  0  0  0  0  0  0
    3.4010   -0.6334   -0.2916 S   0  0  0  0  0  0  0  0  0  0  0  0
   -2.5565   -2.6237   -2.0173 H   0  0  0  0  0  0  0  0  0  0  0  0
   -2.2546   -2.5703   -0.2640 H   0  0  0  0  0  0  0  0  0  0  0  0
   -3.6838   -1.7578   -0.9461 H   0  0  0  0  0  0  0  0  0  0  0  0
   -0.0657    2.4659    0.9737 H   0  0  0  0  0  0  0  0  0  0  0  0
   -0.0683    3.4355   -0.5190 H   0  0  0  0  0  0  0  0  0  0  0  0
   -1.5866    3.1666    0.3702 H   0  0  0  0  0  0  0  0  0  0  0  0
    0.6437   -1.7012   -0.2525 H   0  0  0  0  0  0  0  0  0  0  0  0
    1.4170   -1.8998    1.3383 H   0  0  0  0  0  0  0  0  0  0  0  0
    1.3570    0.6374   -0.3550 H   0  0  0  0  0  0  0  0  0  0  0  0
    2.0202    0.5398    1.2939 H   0  0  0  0  0  0  0  0  0  0  0  0
    3.8090    1.5197   -1.2890 H   0  0  0  0  0  0  0  0  0  0  0  0
    4.4722    1.4221    0.3599 H   0  0  0  0  0  0  0  0  0  0  0  0
    5.3245    0.6351   -0.9902 H   0  0  0  0  0  0  0  0  0  0  0  0
  3  7  1  0  0  0  0
  7  9  1  0  0  0  0
  6  9  2  0  0  0  0
  8  9  1  0  0  0  0
  4  8  1  0  0  0  0
  9 10  1  0  0  0  0
  1 10  1  0  0  0  0
  1  2  1  0  0  0  0
  2 11  1  0  0  0  0
  5 11  1  0  0  0  0
  3 12  1  0  0  0  0
  3 13  1  0  0  0  0
  3 14  1  0  0  0  0
  4 15  1  0  0  0  0
  4 16  1  0  0  0  0
  4 17  1  0  0  0  0
  1 18  1  0  0  0  0
  1 19  1  0  0  0  0
  2 20  1  0  0  0  0
  2 21  1  0  0  0  0
  5 22  1  0  0  0  0
  5 23  1  0  0  0  0
  5 24  1  0  0  0  0
M  END
$$$$
