C8H19O3PS2
APtclcactv12151716413D 0   0.00000     0.00000
 
 33 32  0  0  0  0  0  0  0  0999 V2000
    1.1287   -0.0247   -0.1582 C   0  0  0  0  0  0  0  0  0  0  0  0
   -3.9480   -1.2739    0.1407 C   0  0  0  0  0  0  0  0  0  0  0  0
   -1.3172    2.5316    0.0088 C   0  0  0  0  0  0  0  0  0  0  0  0
    2.3659   -0.6407    0.4981 C   0  0  0  0  0  0  0  0  0  0  0  0
    5.1981   -0.7985    0.6226 C   0  0  0  0  0  0  0  0  0  0  0  0
   -4.6788   -2.3743    0.9128 C   0  0  0  0  0  0  0  0  0  0  0  0
   -1.8314    3.7459    0.7847 C   0  0  0  0  0  0  0  0  0  0  0  0
    6.5486   -0.3266    0.0801 C   0  0  0  0  0  0  0  0  0  0  0  0
   -0.0489   -0.5589    0.4499 O   0  0  0  0  0  0  0  0  0  0  0  0
   -2.5977   -1.1861    0.6000 O   0  0  0  0  0  0  0  0  0  0  0  0
   -1.8645    1.3386    0.5739 O   0  0  0  0  0  0  0  0  0  0  0  0
   -1.5362   -0.1316    0.0056 P   0  0  0  0  0  0  0  0  0  0  0  0
    3.8609    0.0374   -0.2738 S   0  0  0  0  0  0  0  0  0  0  0  0
   -1.6491   -0.1180   -1.8545 S   0  0  0  0  0  0  0  0  0  0  0  0
    1.1476    1.0570   -0.0253 H   0  0  0  0  0  0  0  0  0  0  0  0
    1.1268   -0.2600   -1.2225 H   0  0  0  0  0  0  0  0  0  0  0  0
   -3.9553   -1.5106   -0.9233 H   0  0  0  0  0  0  0  0  0  0  0  0
   -4.4502   -0.3205    0.3043 H   0  0  0  0  0  0  0  0  0  0  0  0
   -1.6212    2.6119   -1.0348 H   0  0  0  0  0  0  0  0  0  0  0  0
   -0.2294    2.4961    0.0688 H   0  0  0  0  0  0  0  0  0  0  0  0
    2.3679   -0.4054    1.5624 H   0  0  0  0  0  0  0  0  0  0  0  0
    2.3471   -1.7224    0.3652 H   0  0  0  0  0  0  0  0  0  0  0  0
   -5.7088   -2.4413    0.5625 H   0  0  0  0  0  0  0  0  0  0  0  0
   -4.1766   -3.3278    0.7493 H   0  0  0  0  0  0  0  0  0  0  0  0
   -4.6716   -2.1377    1.9768 H   0  0  0  0  0  0  0  0  0  0  0  0
   -2.9192    3.7813    0.7248 H   0  0  0  0  0  0  0  0  0  0  0  0
   -1.5274    3.6655    1.8284 H   0  0  0  0  0  0  0  0  0  0  0  0
   -1.4139    4.6558    0.3537 H   0  0  0  0  0  0  0  0  0  0  0  0
    5.1084   -1.8763    0.4866 H   0  0  0  0  0  0  0  0  0  0  0  0
    5.1292   -0.5593    1.6838 H   0  0  0  0  0  0  0  0  0  0  0  0
    6.6175   -0.5659   -0.9811 H   0  0  0  0  0  0  0  0  0  0  0  0
    6.6383    0.7511    0.2161 H   0  0  0  0  0  0  0  0  0  0  0  0
    7.3521   -0.8289    0.6187 H   0  0  0  0  0  0  0  0  0  0  0  0
  9 12  1  0  0  0  0
  1  9  1  0  0  0  0
 10 12  1  0  0  0  0
 11 12  1  0  0  0  0
 12 14  2  0  0  0  0
  2 10  1  0  0  0  0
  3 11  1  0  0  0  0
  1  4  1  0  0  0  0
  2  6  1  0  0  0  0
  3  7  1  0  0  0  0
  4 13  1  0  0  0  0
  5 13  1  0  0  0  0
  5  8  1  0  0  0  0
  1 15  1  0  0  0  0
  1 16  1  0  0  0  0
  2 17  1  0  0  0  0
  2 18  1  0  0  0  0
  3 19  1  0  0  0  0
  3 20  1  0  0  0  0
  4 21  1  0  0  0  0
  4 22  1  0  0  0  0
  6 23  1  0  0  0  0
  6 24  1  0  0  0  0
  6 25  1  0  0  0  0
  7 26  1  0  0  0  0
  7 27  1  0  0  0  0
  7 28  1  0  0  0  0
  5 29  1  0  0  0  0
  5 30  1  0  0  0  0
  8 31  1  0  0  0  0
  8 32  1  0  0  0  0
  8 33  1  0  0  0  0
M  END
$$$$
