C18H19NO
APtclcactv12211717163D 0   0.00000     0.00000
 
 39 41  0  0  0  0  0  0  0  0999 V2000
    1.1086    1.5350   -1.3459 C   0  0  0  0  0  0  0  0  0  0  0  0
   -2.2652   -1.4863   -1.4237 C   0  0  0  0  0  0  0  0  0  0  0  0
    0.0772    3.2383    0.5489 C   0  0  0  0  0  0  0  0  0  0  0  0
    1.5191    2.8476   -1.3178 C   0  0  0  0  0  0  0  0  0  0  0  0
   -3.5636   -0.9312    0.9759 C   0  0  0  0  0  0  0  0  0  0  0  0
   -3.5754   -1.8857   -1.2313 C   0  0  0  0  0  0  0  0  0  0  0  0
    0.9991    3.7025   -0.3620 C   0  0  0  0  0  0  0  0  0  0  0  0
   -4.2156   -1.6124   -0.0351 C   0  0  0  0  0  0  0  0  0  0  0  0
    2.2074   -0.8836   -0.7133 C   0  0  0  0  0  0  0  0  0  0  0  0
    2.9625   -1.8088    0.2430 C   0  0  0  0  0  0  0  0  0  0  0  0
    5.1356   -2.2858    1.1984 C   0  0  0  0  0  0  0  0  0  0  0  0
    4.7831   -1.4204   -0.6360 H   0  0  0  0  0  0  0  0  0  0  0  0
   -1.3675    1.5575    1.5899 C   0  0  0  0  0  0  0  0  0  0  0  0
   -0.1985   -0.3739   -0.5341 C   0  0  0  0  0  0  0  0  0  0  0  0
    0.1705    1.0567   -0.4182 C   0  0  0  0  0  0  0  0  0  0  0  0
   -1.6085   -0.8094   -0.4046 C   0  0  0  0  0  0  0  0  0  0  0  0
   -0.3526    1.9106    0.5348 C   0  0  0  0  0  0  0  0  0  0  0  0
   -2.2519   -0.5156    0.7889 C   0  0  0  0  0  0  0  0  0  0  0  0
    0.7556   -1.2853   -0.7594 C   0  0  0  0  0  0  0  0  0  0  0  0
   -1.6058    0.1818    1.7436 O   0  0  0  0  0  0  0  0  0  0  0  0
    4.3776   -1.4173    0.2879 N   0  0  0  0  0  0  0  0  0  0  0  0
    0.4850   -2.3086   -0.9741 H   0  0  0  0  0  0  0  0  0  0  0  0
    1.5094    0.8662   -2.0932 H   0  0  0  0  0  0  0  0  0  0  0  0
   -1.7596   -1.6984   -2.3542 H   0  0  0  0  0  0  0  0  0  0  0  0
    2.2887    0.1454   -0.3633 H   0  0  0  0  0  0  0  0  0  0  0  0
    2.6381   -0.9630   -1.7115 H   0  0  0  0  0  0  0  0  0  0  0  0
   -1.0243    1.9561    2.5446 H   0  0  0  0  0  0  0  0  0  0  0  0
   -2.3098    2.0438    1.3375 H   0  0  0  0  0  0  0  0  0  0  0  0
   -0.3211    3.9153    1.2901 H   0  0  0  0  0  0  0  0  0  0  0  0
    2.2415    3.2078   -2.0354 H   0  0  0  0  0  0  0  0  0  0  0  0
   -4.0717   -0.7230    1.9059 H   0  0  0  0  0  0  0  0  0  0  0  0
   -4.0995   -2.4117   -2.0155 H   0  0  0  0  0  0  0  0  0  0  0  0
    2.5317   -1.7295    1.2412 H   0  0  0  0  0  0  0  0  0  0  0  0
    2.8812   -2.8379   -0.1070 H   0  0  0  0  0  0  0  0  0  0  0  0
    1.3163    4.7343   -0.3308 H   0  0  0  0  0  0  0  0  0  0  0  0
   -5.2359   -1.9352    0.1104 H   0  0  0  0  0  0  0  0  0  0  0  0
    5.0693   -3.3182    0.8550 H   0  0  0  0  0  0  0  0  0  0  0  0
    6.1799   -1.9740    1.2128 H   0  0  0  0  0  0  0  0  0  0  0  0
    4.7199   -2.2098    2.2032 H   0  0  0  0  0  0  0  0  0  0  0  0
 14 15  1  0  0  0  0
 14 16  1  0  0  0  0
 14 19  2  0  0  0  0
 15 17  2  0  0  0  0
  1 15  1  0  0  0  0
 16 18  2  0  0  0  0
  2 16  1  0  0  0  0
  9 19  1  0  0  0  0
 13 17  1  0  0  0  0
  3 17  1  0  0  0  0
  1  4  2  0  0  0  0
 18 20  1  0  0  0  0
  5 18  1  0  0  0  0
  2  6  2  0  0  0  0
  9 10  1  0  0  0  0
  3  7  2  0  0  0  0
  5  8  2  0  0  0  0
 10 21  1  0  0  0  0
 11 21  1  0  0  0  0
 13 20  1  0  0  0  0
  4  7  1  0  0  0  0
  6  8  1  0  0  0  0
 19 22  1  0  0  0  0
  1 23  1  0  0  0  0
  2 24  1  0  0  0  0
  9 25  1  0  0  0  0
  9 26  1  0  0  0  0
 13 27  1  0  0  0  0
 13 28  1  0  0  0  0
  3 29  1  0  0  0  0
  4 30  1  0  0  0  0
  5 31  1  0  0  0  0
  6 32  1  0  0  0  0
 10 33  1  0  0  0  0
 10 34  1  0  0  0  0
  7 35  1  0  0  0  0
  8 36  1  0  0  0  0
 12 21  1  0  0  0  0
 11 37  1  0  0  0  0
 11 38  1  0  0  0  0
 11 39  1  0  0  0  0
M  END
$$$$
