C8H15N5S
APtclcactv12151716353D 0   0.00000     0.00000
 
 29 29  0  0  0  0  0  0  0  0999 V2000
    3.1744    2.1258    0.0495 C   0  0  0  0  0  0  0  0  0  0  0  0
    3.4847   -2.2864   -0.1099 C   0  0  0  0  0  0  0  0  0  0  0  0
   -3.5583    0.7562   -1.2552 C   0  0  0  0  0  0  0  0  0  0  0  0
   -4.6027   -0.2312    0.7885 C   0  0  0  0  0  0  0  0  0  0  0  0
   -2.6942   -1.8049    0.0653 H   0  0  0  0  0  0  0  0  0  0  0  0
    1.7016   -3.4390   -0.1053 H   0  0  0  0  0  0  0  0  0  0  0  0
   -0.9953   -0.6656    0.0568 C   0  0  0  0  0  0  0  0  0  0  0  0
    0.7796    0.8017    0.0635 C   0  0  0  0  0  0  0  0  0  0  0  0
    1.1620   -1.4675   -0.0244 C   0  0  0  0  0  0  0  0  0  0  0  0
   -3.2884    0.2315    0.1565 C   0  0  0  0  0  0  0  0  0  0  0  0
   -0.5314    0.5797    0.0883 N   0  0  0  0  0  0  0  0  0  0  0  0
   -0.1488   -1.6891    0.0004 N   0  0  0  0  0  0  0  0  0  0  0  0
    1.6264   -0.2227    0.0071 N   0  0  0  0  0  0  0  0  0  0  0  0
   -2.3557   -0.8961    0.0883 N   0  0  0  0  0  0  0  0  0  0  0  0
    2.0405   -2.5304   -0.0825 N   0  0  0  0  0  0  0  0  0  0  0  0
    1.3949    2.4522    0.1046 S   0  0  0  0  0  0  0  0  0  0  0  0
   -2.8538    1.0264    0.7626 H   0  0  0  0  0  0  0  0  0  0  0  0
    3.4604    1.5248    0.9126 H   0  0  0  0  0  0  0  0  0  0  0  0
    3.4165    1.5856   -0.8657 H   0  0  0  0  0  0  0  0  0  0  0  0
    3.7178    3.0705    0.0683 H   0  0  0  0  0  0  0  0  0  0  0  0
    3.7358   -1.6891   -0.9864 H   0  0  0  0  0  0  0  0  0  0  0  0
    3.7797   -1.7500    0.7920 H   0  0  0  0  0  0  0  0  0  0  0  0
    4.0133   -3.2386   -0.1555 H   0  0  0  0  0  0  0  0  0  0  0  0
   -4.2522    1.5953   -1.2044 H   0  0  0  0  0  0  0  0  0  0  0  0
   -2.6220    1.0859   -1.7054 H   0  0  0  0  0  0  0  0  0  0  0  0
   -3.9929   -0.0386   -1.8613 H   0  0  0  0  0  0  0  0  0  0  0  0
   -4.4104   -0.6050    1.7942 H   0  0  0  0  0  0  0  0  0  0  0  0
   -5.2966    0.6078    0.8393 H   0  0  0  0  0  0  0  0  0  0  0  0
   -5.0373   -1.0260    0.1824 H   0  0  0  0  0  0  0  0  0  0  0  0
  8 16  1  0  0  0  0
  1 16  1  0  0  0  0
  7 11  1  0  0  0  0
  8 11  2  0  0  0  0
  7 12  2  0  0  0  0
  9 12  1  0  0  0  0
  8 13  1  0  0  0  0
  9 13  2  0  0  0  0
  7 14  1  0  0  0  0
 10 14  1  0  0  0  0
  9 15  1  0  0  0  0
  2 15  1  0  0  0  0
  3 10  1  0  0  0  0
  4 10  1  0  0  0  0
  5 14  1  0  0  0  0
  6 15  1  0  0  0  0
 10 17  1  0  0  0  0
  1 18  1  0  0  0  0
  1 19  1  0  0  0  0
  1 20  1  0  0  0  0
  2 21  1  0  0  0  0
  2 22  1  0  0  0  0
  2 23  1  0  0  0  0
  3 24  1  0  0  0  0
  3 25  1  0  0  0  0
  3 26  1  0  0  0  0
  4 27  1  0  0  0  0
  4 28  1  0  0  0  0
  4 29  1  0  0  0  0
M  END
$$$$
