C14H18O4
APtclcactv12211717033D 0   0.00000     0.00000
 
 36 36  0  0  0  0  0  0  0  0999 V2000
   -1.3415    0.0578   -0.0103 C   0  0  0  0  0  0  0  0  0  0  0  0
   -0.6730   -1.2601    0.0360 C   0  0  0  0  0  0  0  0  0  0  0  0
    0.7088   -1.3627   -0.2146 C   0  0  0  0  0  0  0  0  0  0  0  0
    1.5000   -0.1532   -0.5258 C   0  0  0  0  0  0  0  0  0  0  0  0
    1.1681    0.5703   -1.4431 O   0  0  0  0  0  0  0  0  0  0  0  0
    2.5891    0.1464    0.2081 O   0  0  0  0  0  0  0  0  0  0  0  0
    3.3177    1.3491   -0.1541 C   0  0  0  0  0  0  0  0  0  0  0  0
    4.5138    1.5228    0.7841 C   0  0  0  0  0  0  0  0  0  0  0  0
    5.2815    2.7900    0.4024 C   0  0  0  0  0  0  0  0  0  0  0  0
    1.3253   -2.6098   -0.1672 C   0  0  0  0  0  0  0  0  0  0  0  0
    0.5813   -3.7381    0.1247 C   0  0  0  0  0  0  0  0  0  0  0  0
   -0.7761   -3.6373    0.3709 C   0  0  0  0  0  0  0  0  0  0  0  0
   -1.4048   -2.4063    0.3334 C   0  0  0  0  0  0  0  0  0  0  0  0
   -0.6833    1.0677   -0.1590 O   0  0  0  0  0  0  0  0  0  0  0  0
   -2.6810    0.1381    0.1068 O   0  0  0  0  0  0  0  0  0  0  0  0
   -3.2692    1.4645    0.0523 C   0  0  0  0  0  0  0  0  0  0  0  0
   -4.7880    1.3554    0.2015 C   0  0  0  0  0  0  0  0  0  0  0  0
   -5.4078    2.7531    0.1441 C   0  0  0  0  0  0  0  0  0  0  0  0
    3.6713    1.2641   -1.1816 H   0  0  0  0  0  0  0  0  0  0  0  0
    2.6590    2.2131   -0.0668 H   0  0  0  0  0  0  0  0  0  0  0  0
    4.1602    1.6078    1.8116 H   0  0  0  0  0  0  0  0  0  0  0  0
    5.1725    0.6587    0.6968 H   0  0  0  0  0  0  0  0  0  0  0  0
    6.1336    2.9137    1.0708 H   0  0  0  0  0  0  0  0  0  0  0  0
    5.6350    2.7050   -0.6251 H   0  0  0  0  0  0  0  0  0  0  0  0
    4.6228    3.6540    0.4897 H   0  0  0  0  0  0  0  0  0  0  0  0
    2.3847   -2.6961   -0.3587 H   0  0  0  0  0  0  0  0  0  0  0  0
    1.0629   -4.7041    0.1603 H   0  0  0  0  0  0  0  0  0  0  0  0
   -1.3478   -4.5251    0.5975 H   0  0  0  0  0  0  0  0  0  0  0  0
   -2.4649   -2.3352    0.5267 H   0  0  0  0  0  0  0  0  0  0  0  0
   -2.8674    2.0736    0.8620 H   0  0  0  0  0  0  0  0  0  0  0  0
   -3.0305    1.9288   -0.9045 H   0  0  0  0  0  0  0  0  0  0  0  0
   -5.1898    0.7463   -0.6082 H   0  0  0  0  0  0  0  0  0  0  0  0
   -5.0267    0.8911    1.1583 H   0  0  0  0  0  0  0  0  0  0  0  0
   -6.4898    2.6754    0.2503 H   0  0  0  0  0  0  0  0  0  0  0  0
   -5.0060    3.3622    0.9538 H   0  0  0  0  0  0  0  0  0  0  0  0
   -5.1691    3.2174   -0.8128 H   0  0  0  0  0  0  0  0  0  0  0  0
  1  2  1  0  0  0  0
  2  3  1  0  0  0  0
  3  4  1  0  0  0  0
  4  5  2  0  0  0  0
  4  6  1  0  0  0  0
  6  7  1  0  0  0  0
  7  8  1  0  0  0  0
  8  9  1  0  0  0  0
  3 10  2  0  0  0  0
 10 11  1  0  0  0  0
 11 12  2  0  0  0  0
 12 13  1  0  0  0  0
  2 13  2  0  0  0  0
  1 14  2  0  0  0  0
  1 15  1  0  0  0  0
 15 16  1  0  0  0  0
 16 17  1  0  0  0  0
 17 18  1  0  0  0  0
  7 19  1  0  0  0  0
  7 20  1  0  0  0  0
  8 21  1  0  0  0  0
  8 22  1  0  0  0  0
  9 23  1  0  0  0  0
  9 24  1  0  0  0  0
  9 25  1  0  0  0  0
 10 26  1  0  0  0  0
 11 27  1  0  0  0  0
 12 28  1  0  0  0  0
 13 29  1  0  0  0  0
 16 30  1  0  0  0  0
 16 31  1  0  0  0  0
 17 32  1  0  0  0  0
 17 33  1  0  0  0  0
 18 34  1  0  0  0  0
 18 35  1  0  0  0  0
 18 36  1  0  0  0  0
M  END
$$$$
