C6H14N2O
APtclcactv12211717003D 0   0.00000     0.00000
 
 23 22  0  0  0  0  0  0  0  0999 V2000
    2.3368   -0.2846   -0.5065 C   0  0  0  0  0  0  0  0  0  0  0  0
    1.2795   -0.2505    0.5988 C   0  0  0  0  0  0  0  0  0  0  0  0
   -0.9816   -0.3721   -0.5463 C   0  0  0  0  0  0  0  0  0  0  0  0
   -1.9858   -0.8426    0.5078 C   0  0  0  0  0  0  0  0  0  0  0  0
    3.5972   -0.9780    0.0146 C   0  0  0  0  0  0  0  0  0  0  0  0
   -3.0868   -1.6631   -0.1671 C   0  0  0  0  0  0  0  0  0  0  0  0
   -1.0650    2.2419   -0.1853 O   0  0  0  0  0  0  0  0  0  0  0  0
   -0.0617    1.6899    0.2295 N   0  0  0  0  0  0  0  0  0  0  0  0
    0.0726    0.4135    0.0999 N   0  0  0  0  0  0  0  0  0  0  0  0
    1.9482   -0.8338   -1.3642 H   0  0  0  0  0  0  0  0  0  0  0  0
    2.5807    0.7342   -0.8076 H   0  0  0  0  0  0  0  0  0  0  0  0
    1.0355   -1.2693    0.8999 H   0  0  0  0  0  0  0  0  0  0  0  0
    1.6681    0.2987    1.4565 H   0  0  0  0  0  0  0  0  0  0  0  0
    3.3532   -1.9968    0.3157 H   0  0  0  0  0  0  0  0  0  0  0  0
    4.3504   -1.0024   -0.7729 H   0  0  0  0  0  0  0  0  0  0  0  0
    3.9857   -0.4289    0.8722 H   0  0  0  0  0  0  0  0  0  0  0  0
   -0.5393   -1.2381   -1.0388 H   0  0  0  0  0  0  0  0  0  0  0  0
   -1.4929    0.2445   -1.2856 H   0  0  0  0  0  0  0  0  0  0  0  0
   -1.4745   -1.4592    1.2470 H   0  0  0  0  0  0  0  0  0  0  0  0
   -2.4281    0.0233    1.0003 H   0  0  0  0  0  0  0  0  0  0  0  0
   -3.5981   -1.0465   -0.9063 H   0  0  0  0  0  0  0  0  0  0  0  0
   -2.6445   -2.5291   -0.6596 H   0  0  0  0  0  0  0  0  0  0  0  0
   -3.8023   -1.9983    0.5838 H   0  0  0  0  0  0  0  0  0  0  0  0
  1  2  1  0  0  0  0
  1  5  1  0  0  0  0
  1 10  1  0  0  0  0
  1 11  1  0  0  0  0
  2  9  1  0  0  0  0
  2 12  1  0  0  0  0
  2 13  1  0  0  0  0
  5 14  1  0  0  0  0
  5 15  1  0  0  0  0
  5 16  1  0  0  0  0
  3  9  1  0  0  0  0
  8  9  1  0  0  0  0
  3  4  1  0  0  0  0
  3 17  1  0  0  0  0
  3 18  1  0  0  0  0
  7  8  2  0  0  0  0
  4  6  1  0  0  0  0
  4 19  1  0  0  0  0
  4 20  1  0  0  0  0
  6 21  1  0  0  0  0
  6 22  1  0  0  0  0
  6 23  1  0  0  0  0
M  END
$$$$
