C12H8N2
APtclcactv12111704553D 0   0.00000     0.00000
 
 22 24  0  0  0  0  0  0  0  0999 V2000
   -2.3861   -1.4117   -0.0003 C   0  0  0  0  0  0  0  0  0  0  0  0
   -3.5407   -0.6983    0.0006 C   0  0  0  0  0  0  0  0  0  0  0  0
   -3.5408    0.6977    0.0008 C   0  0  0  0  0  0  0  0  0  0  0  0
   -2.3865    1.4116    0.0001 C   0  0  0  0  0  0  0  0  0  0  0  0
   -1.1480    0.7342   -0.0003 C   0  0  0  0  0  0  0  0  0  0  0  0
    0.0000    1.4030   -0.0005 N   0  0  0  0  0  0  0  0  0  0  0  0
    1.1480    0.7342   -0.0005 C   0  0  0  0  0  0  0  0  0  0  0  0
    1.1479   -0.7337   -0.0002 C   0  0  0  0  0  0  0  0  0  0  0  0
   -0.0000   -1.4026   -0.0009 N   0  0  0  0  0  0  0  0  0  0  0  0
   -1.1479   -0.7337   -0.0005 C   0  0  0  0  0  0  0  0  0  0  0  0
    2.3861   -1.4117    0.0003 C   0  0  0  0  0  0  0  0  0  0  0  0
    3.5407   -0.6983    0.0005 C   0  0  0  0  0  0  0  0  0  0  0  0
    3.5408    0.6978    0.0007 C   0  0  0  0  0  0  0  0  0  0  0  0
    2.3865    1.4116   -0.0002 C   0  0  0  0  0  0  0  0  0  0  0  0
   -2.4144   -2.4913    0.0037 H   0  0  0  0  0  0  0  0  0  0  0  0
   -4.4840   -1.2243    0.0007 H   0  0  0  0  0  0  0  0  0  0  0  0
   -4.4842    1.2235    0.0011 H   0  0  0  0  0  0  0  0  0  0  0  0
   -2.4153    2.4912   -0.0004 H   0  0  0  0  0  0  0  0  0  0  0  0
    2.4145   -2.4913    0.0008 H   0  0  0  0  0  0  0  0  0  0  0  0
    4.4840   -1.2243    0.0009 H   0  0  0  0  0  0  0  0  0  0  0  0
    4.4842    1.2235    0.0016 H   0  0  0  0  0  0  0  0  0  0  0  0
    2.4152    2.4912   -0.0003 H   0  0  0  0  0  0  0  0  0  0  0  0
  1  2  2  0  0  0  0
  2  3  1  0  0  0  0
  3  4  2  0  0  0  0
  4  5  1  0  0  0  0
  5  6  2  0  0  0  0
  6  7  1  0  0  0  0
  7  8  2  0  0  0  0
  8  9  1  0  0  0  0
  9 10  2  0  0  0  0
  5 10  1  0  0  0  0
  1 10  1  0  0  0  0
  8 11  1  0  0  0  0
 11 12  2  0  0  0  0
 12 13  1  0  0  0  0
 13 14  2  0  0  0  0
  7 14  1  0  0  0  0
  1 15  1  0  0  0  0
  2 16  1  0  0  0  0
  3 17  1  0  0  0  0
  4 18  1  0  0  0  0
 11 19  1  0  0  0  0
 12 20  1  0  0  0  0
 13 21  1  0  0  0  0
 14 22  1  0  0  0  0
M  END
$$$$
