C12H8O
APtclcactv12111704553D 0   0.00000     0.00000
 
 21 23  0  0  0  0  0  0  0  0999 V2000
   -1.7045   -1.4936    0.0001 C   0  0  0  0  0  0  0  0  0  0  0  0
   -3.0409   -1.1529   -0.0004 C   0  0  0  0  0  0  0  0  0  0  0  0
   -3.4191    0.1804   -0.0008 C   0  0  0  0  0  0  0  0  0  0  0  0
   -2.4688    1.1795   -0.0002 C   0  0  0  0  0  0  0  0  0  0  0  0
   -1.1171    0.8556    0.0004 C   0  0  0  0  0  0  0  0  0  0  0  0
    0.0000    1.6157    0.0002 O   0  0  0  0  0  0  0  0  0  0  0  0
    1.1171    0.8556    0.0004 C   0  0  0  0  0  0  0  0  0  0  0  0
    0.7377   -0.4937    0.0008 C   0  0  0  0  0  0  0  0  0  0  0  0
   -0.7377   -0.4937    0.0007 C   0  0  0  0  0  0  0  0  0  0  0  0
    1.7045   -1.4936    0.0002 C   0  0  0  0  0  0  0  0  0  0  0  0
    3.0409   -1.1529   -0.0007 C   0  0  0  0  0  0  0  0  0  0  0  0
    3.4191    0.1804   -0.0011 C   0  0  0  0  0  0  0  0  0  0  0  0
    2.4688    1.1795    0.0004 C   0  0  0  0  0  0  0  0  0  0  0  0
   -1.4099   -2.5326    0.0045 H   0  0  0  0  0  0  0  0  0  0  0  0
   -3.7942   -1.9268   -0.0009 H   0  0  0  0  0  0  0  0  0  0  0  0
   -4.4676    0.4392   -0.0019 H   0  0  0  0  0  0  0  0  0  0  0  0
   -2.7752    2.2151   -0.0005 H   0  0  0  0  0  0  0  0  0  0  0  0
    1.4099   -2.5326    0.0008 H   0  0  0  0  0  0  0  0  0  0  0  0
    3.7942   -1.9268   -0.0008 H   0  0  0  0  0  0  0  0  0  0  0  0
    4.4676    0.4391   -0.0014 H   0  0  0  0  0  0  0  0  0  0  0  0
    2.7752    2.2151   -0.0001 H   0  0  0  0  0  0  0  0  0  0  0  0
  1  2  2  0  0  0  0
  2  3  1  0  0  0  0
  3  4  2  0  0  0  0
  4  5  1  0  0  0  0
  5  6  1  0  0  0  0
  6  7  1  0  0  0  0
  7  8  2  0  0  0  0
  8  9  1  0  0  0  0
  5  9  2  0  0  0  0
  1  9  1  0  0  0  0
  8 10  1  0  0  0  0
 10 11  2  0  0  0  0
 11 12  1  0  0  0  0
 12 13  2  0  0  0  0
  7 13  1  0  0  0  0
  1 14  1  0  0  0  0
  2 15  1  0  0  0  0
  3 16  1  0  0  0  0
  4 17  1  0  0  0  0
 10 18  1  0  0  0  0
 11 19  1  0  0  0  0
 12 20  1  0  0  0  0
 13 21  1  0  0  0  0
M  END
$$$$
