C12H8O2
APtclcactv12111704553D 0   0.00000     0.00000
 
 22 24  0  0  0  0  0  0  0  0999 V2000
   -2.3782   -1.3858   -0.0005 C   0  0  0  0  0  0  0  0  0  0  0  0
   -3.5746   -0.6915    0.0004 C   0  0  0  0  0  0  0  0  0  0  0  0
   -3.5748    0.6906    0.0007 C   0  0  0  0  0  0  0  0  0  0  0  0
   -2.3788    1.3857    0.0002 C   0  0  0  0  0  0  0  0  0  0  0  0
   -1.1777    0.6961   -0.0003 C   0  0  0  0  0  0  0  0  0  0  0  0
    0.0000    1.3765   -0.0004 O   0  0  0  0  0  0  0  0  0  0  0  0
    1.1777    0.6960   -0.0004 C   0  0  0  0  0  0  0  0  0  0  0  0
    1.1777   -0.6954   -0.0003 C   0  0  0  0  0  0  0  0  0  0  0  0
   -0.0000   -1.3759   -0.0002 O   0  0  0  0  0  0  0  0  0  0  0  0
   -1.1777   -0.6954   -0.0006 C   0  0  0  0  0  0  0  0  0  0  0  0
    2.3782   -1.3859    0.0001 C   0  0  0  0  0  0  0  0  0  0  0  0
    3.5746   -0.6915    0.0004 C   0  0  0  0  0  0  0  0  0  0  0  0
    3.5748    0.6907    0.0007 C   0  0  0  0  0  0  0  0  0  0  0  0
    2.3788    1.3857   -0.0001 C   0  0  0  0  0  0  0  0  0  0  0  0
   -2.3804   -2.4658    0.0034 H   0  0  0  0  0  0  0  0  0  0  0  0
   -4.5104   -1.2305    0.0006 H   0  0  0  0  0  0  0  0  0  0  0  0
   -4.5109    1.2292    0.0011 H   0  0  0  0  0  0  0  0  0  0  0  0
   -2.3816    2.4657   -0.0003 H   0  0  0  0  0  0  0  0  0  0  0  0
    2.3804   -2.4659    0.0005 H   0  0  0  0  0  0  0  0  0  0  0  0
    4.5105   -1.2304    0.0007 H   0  0  0  0  0  0  0  0  0  0  0  0
    4.5109    1.2293    0.0014 H   0  0  0  0  0  0  0  0  0  0  0  0
    2.3816    2.4657   -0.0005 H   0  0  0  0  0  0  0  0  0  0  0  0
  1  2  2  0  0  0  0
  2  3  1  0  0  0  0
  3  4  2  0  0  0  0
  4  5  1  0  0  0  0
  5  6  1  0  0  0  0
  6  7  1  0  0  0  0
  7  8  2  0  0  0  0
  8  9  1  0  0  0  0
  9 10  1  0  0  0  0
  5 10  2  0  0  0  0
  1 10  1  0  0  0  0
  8 11  1  0  0  0  0
 11 12  2  0  0  0  0
 12 13  1  0  0  0  0
 13 14  2  0  0  0  0
  7 14  1  0  0  0  0
  1 15  1  0  0  0  0
  2 16  1  0  0  0  0
  3 17  1  0  0  0  0
  4 18  1  0  0  0  0
 11 19  1  0  0  0  0
 12 20  1  0  0  0  0
 13 21  1  0  0  0  0
 14 22  1  0  0  0  0
M  END
$$$$
