C16H22O4
APtclcactv12211717133D 0   0.00000     0.00000
 
 42 42  0  0  0  0  0  0  0  0999 V2000
   -1.3216   -0.2181   -0.0449 C   0  0  0  0  0  0  0  0  0  0  0  0
   -0.6620   -1.5372    0.0587 C   0  0  0  0  0  0  0  0  0  0  0  0
    0.7110   -1.6668   -0.2257 C   0  0  0  0  0  0  0  0  0  0  0  0
    1.5017   -0.4847   -0.6297 C   0  0  0  0  0  0  0  0  0  0  0  0
    1.1482    0.1873   -1.5775 O   0  0  0  0  0  0  0  0  0  0  0  0
    2.6143   -0.1531    0.0535 O   0  0  0  0  0  0  0  0  0  0  0  0
    3.3408    1.0197   -0.3993 C   0  0  0  0  0  0  0  0  0  0  0  0
    4.5654    1.2365    0.4920 C   0  0  0  0  0  0  0  0  0  0  0  0
    5.3310    2.4723    0.0149 C   0  0  0  0  0  0  0  0  0  0  0  0
    6.5556    2.6892    0.9061 C   0  0  0  0  0  0  0  0  0  0  0  0
    1.3193   -2.9147   -0.1237 C   0  0  0  0  0  0  0  0  0  0  0  0
    0.5758   -4.0173    0.2549 C   0  0  0  0  0  0  0  0  0  0  0  0
   -0.7729   -3.8899    0.5343 C   0  0  0  0  0  0  0  0  0  0  0  0
   -1.3932   -2.6574    0.4435 C   0  0  0  0  0  0  0  0  0  0  0  0
   -0.6606    0.7753   -0.2713 O   0  0  0  0  0  0  0  0  0  0  0  0
   -2.6565   -0.1188    0.1063 O   0  0  0  0  0  0  0  0  0  0  0  0
   -3.2360    1.2075   -0.0082 C   0  0  0  0  0  0  0  0  0  0  0  0
   -4.7505    1.1213    0.1912 C   0  0  0  0  0  0  0  0  0  0  0  0
   -5.3612    2.5189    0.0706 C   0  0  0  0  0  0  0  0  0  0  0  0
   -6.8757    2.4327    0.2700 C   0  0  0  0  0  0  0  0  0  0  0  0
    3.6632    0.8720   -1.4300 H   0  0  0  0  0  0  0  0  0  0  0  0
    2.6915    1.8934   -0.3433 H   0  0  0  0  0  0  0  0  0  0  0  0
    4.2431    1.3842    1.5227 H   0  0  0  0  0  0  0  0  0  0  0  0
    5.2148    0.3628    0.4360 H   0  0  0  0  0  0  0  0  0  0  0  0
    5.6533    2.3246   -1.0158 H   0  0  0  0  0  0  0  0  0  0  0  0
    4.6816    3.3460    0.0709 H   0  0  0  0  0  0  0  0  0  0  0  0
    7.1009    3.5696    0.5663 H   0  0  0  0  0  0  0  0  0  0  0  0
    6.2332    2.8369    1.9369 H   0  0  0  0  0  0  0  0  0  0  0  0
    7.2049    1.8155    0.8502 H   0  0  0  0  0  0  0  0  0  0  0  0
    2.3719   -3.0218   -0.3406 H   0  0  0  0  0  0  0  0  0  0  0  0
    1.0510   -4.9840    0.3327 H   0  0  0  0  0  0  0  0  0  0  0  0
   -1.3443   -4.7578    0.8288 H   0  0  0  0  0  0  0  0  0  0  0  0
   -2.4466   -2.5655    0.6631 H   0  0  0  0  0  0  0  0  0  0  0  0
   -2.8059    1.8589    0.7526 H   0  0  0  0  0  0  0  0  0  0  0  0
   -3.0223    1.6133   -0.9970 H   0  0  0  0  0  0  0  0  0  0  0  0
   -5.1807    0.4699   -0.5696 H   0  0  0  0  0  0  0  0  0  0  0  0
   -4.9643    0.7155    1.1800 H   0  0  0  0  0  0  0  0  0  0  0  0
   -4.9311    3.1703    0.8314 H   0  0  0  0  0  0  0  0  0  0  0  0
   -5.1475    2.9247   -0.9182 H   0  0  0  0  0  0  0  0  0  0  0  0
   -7.3059    1.7813   -0.4908 H   0  0  0  0  0  0  0  0  0  0  0  0
   -7.0894    2.0269    1.2588 H   0  0  0  0  0  0  0  0  0  0  0  0
   -7.3108    3.4284    0.1841 H   0  0  0  0  0  0  0  0  0  0  0  0
  1  2  1  0  0  0  0
  2  3  1  0  0  0  0
  3  4  1  0  0  0  0
  4  5  2  0  0  0  0
  4  6  1  0  0  0  0
  6  7  1  0  0  0  0
  7  8  1  0  0  0  0
  8  9  1  0  0  0  0
  9 10  1  0  0  0  0
  3 11  2  0  0  0  0
 11 12  1  0  0  0  0
 12 13  2  0  0  0  0
 13 14  1  0  0  0  0
  2 14  2  0  0  0  0
  1 15  2  0  0  0  0
  1 16  1  0  0  0  0
 16 17  1  0  0  0  0
 17 18  1  0  0  0  0
 18 19  1  0  0  0  0
 19 20  1  0  0  0  0
  7 21  1  0  0  0  0
  7 22  1  0  0  0  0
  8 23  1  0  0  0  0
  8 24  1  0  0  0  0
  9 25  1  0  0  0  0
  9 26  1  0  0  0  0
 10 27  1  0  0  0  0
 10 28  1  0  0  0  0
 10 29  1  0  0  0  0
 11 30  1  0  0  0  0
 12 31  1  0  0  0  0
 13 32  1  0  0  0  0
 14 33  1  0  0  0  0
 17 34  1  0  0  0  0
 17 35  1  0  0  0  0
 18 36  1  0  0  0  0
 18 37  1  0  0  0  0
 19 38  1  0  0  0  0
 19 39  1  0  0  0  0
 20 40  1  0  0  0  0
 20 41  1  0  0  0  0
 20 42  1  0  0  0  0
M  END
$$$$
