C9H21O4P
APtclcactv12151716543D 0   0.00000     0.00000
 
 35 34  0  0  0  0  0  0  0  0999 V2000
   -0.0000    0.4572    0.4544 P   0  0  0  0  0  0  0  0  0  0  0  0
   -0.0000    0.4934    1.9339 O   0  0  0  0  0  0  0  0  0  0  0  0
    1.3146   -0.3146   -0.0636 O   0  0  0  0  0  0  0  0  0  0  0  0
    2.6393    0.0635    0.3160 C   0  0  0  0  0  0  0  0  0  0  0  0
    3.6480   -0.8740   -0.3507 C   0  0  0  0  0  0  0  0  0  0  0  0
    5.0664   -0.4691    0.0556 C   0  0  0  0  0  0  0  0  0  0  0  0
    6.0752   -1.4066   -0.6110 C   0  0  0  0  0  0  0  0  0  0  0  0
   -1.3146   -0.3146   -0.0636 O   0  0  0  0  0  0  0  0  0  0  0  0
   -2.6393    0.0635    0.3160 C   0  0  0  0  0  0  0  0  0  0  0  0
   -3.6480   -0.8740   -0.3507 C   0  0  0  0  0  0  0  0  0  0  0  0
   -5.0664   -0.4691    0.0556 C   0  0  0  0  0  0  0  0  0  0  0  0
   -6.0752   -1.4066   -0.6110 C   0  0  0  0  0  0  0  0  0  0  0  0
    0.0000    1.9616   -0.1192 O   0  0  0  0  0  0  0  0  0  0  0  0
    0.0000    2.2618   -1.5163 C   0  0  0  0  0  0  0  0  0  0  0  0
    2.8300    1.0883   -0.0027 H   0  0  0  0  0  0  0  0  0  0  0  0
    2.7405   -0.0049    1.3991 H   0  0  0  0  0  0  0  0  0  0  0  0
    3.4573   -1.8988   -0.0320 H   0  0  0  0  0  0  0  0  0  0  0  0
    3.5469   -0.8055   -1.4339 H   0  0  0  0  0  0  0  0  0  0  0  0
    5.2572    0.5556   -0.2630 H   0  0  0  0  0  0  0  0  0  0  0  0
    5.1676   -0.5376    1.1388 H   0  0  0  0  0  0  0  0  0  0  0  0
    5.8845   -2.4314   -0.2924 H   0  0  0  0  0  0  0  0  0  0  0  0
    5.9740   -1.3382   -1.6942 H   0  0  0  0  0  0  0  0  0  0  0  0
    7.0857   -1.1182   -0.3215 H   0  0  0  0  0  0  0  0  0  0  0  0
   -2.7405   -0.0049    1.3991 H   0  0  0  0  0  0  0  0  0  0  0  0
   -2.8300    1.0883   -0.0027 H   0  0  0  0  0  0  0  0  0  0  0  0
   -3.5469   -0.8055   -1.4339 H   0  0  0  0  0  0  0  0  0  0  0  0
   -3.4573   -1.8988   -0.0320 H   0  0  0  0  0  0  0  0  0  0  0  0
   -5.1676   -0.5376    1.1388 H   0  0  0  0  0  0  0  0  0  0  0  0
   -5.2572    0.5556   -0.2630 H   0  0  0  0  0  0  0  0  0  0  0  0
   -5.9740   -1.3382   -1.6942 H   0  0  0  0  0  0  0  0  0  0  0  0
   -5.8845   -2.4314   -0.2924 H   0  0  0  0  0  0  0  0  0  0  0  0
   -7.0857   -1.1182   -0.3215 H   0  0  0  0  0  0  0  0  0  0  0  0
    0.0000    3.3429   -1.6556 H   0  0  0  0  0  0  0  0  0  0  0  0
    0.8900    1.8358   -1.9795 H   0  0  0  0  0  0  0  0  0  0  0  0
   -0.8900    1.8358   -1.9795 H   0  0  0  0  0  0  0  0  0  0  0  0
  1  2  2  0  0  0  0
  1  3  1  0  0  0  0
  3  4  1  0  0  0  0
  4  5  1  0  0  0  0
  5  6  1  0  0  0  0
  6  7  1  0  0  0  0
  1  8  1  0  0  0  0
  8  9  1  0  0  0  0
  9 10  1  0  0  0  0
 10 11  1  0  0  0  0
 11 12  1  0  0  0  0
  1 13  1  0  0  0  0
 13 14  1  0  0  0  0
  4 15  1  0  0  0  0
  4 16  1  0  0  0  0
  5 17  1  0  0  0  0
  5 18  1  0  0  0  0
  6 19  1  0  0  0  0
  6 20  1  0  0  0  0
  7 21  1  0  0  0  0
  7 22  1  0  0  0  0
  7 23  1  0  0  0  0
  9 24  1  0  0  0  0
  9 25  1  0  0  0  0
 10 26  1  0  0  0  0
 10 27  1  0  0  0  0
 11 28  1  0  0  0  0
 11 29  1  0  0  0  0
 12 30  1  0  0  0  0
 12 31  1  0  0  0  0
 12 32  1  0  0  0  0
 14 33  1  0  0  0  0
 14 34  1  0  0  0  0
 14 35  1  0  0  0  0
M  END
$$$$
