C14H31O5P
APtclcactv12211717053D 0   0.00000     0.00000
 
 51 50  0  0  0  0  0  0  0  0999 V2000
   -0.2889   -0.6265   -0.6964 P   0  0  0  0  0  0  0  0  0  0  0  0
   -0.2869   -1.4045   -1.9554 O   0  0  0  0  0  0  0  0  0  0  0  0
   -0.3505    0.9458   -1.0373 O   0  0  0  0  0  0  0  0  0  0  0  0
   -0.3657    1.9603   -0.0310 C   0  0  0  0  0  0  0  0  0  0  0  0
   -0.4270    3.3370   -0.6957 C   0  0  0  0  0  0  0  0  0  0  0  0
   -0.4433    4.4232    0.3817 C   0  0  0  0  0  0  0  0  0  0  0  0
   -0.5046    5.8000   -0.2830 C   0  0  0  0  0  0  0  0  0  0  0  0
   -1.5726   -1.0352    0.1851 O   0  0  0  0  0  0  0  0  0  0  0  0
   -2.9106   -0.9723   -0.3128 C   0  0  0  0  0  0  0  0  0  0  0  0
   -3.8825   -1.4277    0.7776 C   0  0  0  0  0  0  0  0  0  0  0  0
   -5.3150   -1.3603    0.2445 C   0  0  0  0  0  0  0  0  0  0  0  0
   -6.2869   -1.8158    1.3349 C   0  0  0  0  0  0  0  0  0  0  0  0
    1.0544   -0.9437    0.1326 O   0  0  0  0  0  0  0  0  0  0  0  0
    2.3638   -0.7885   -0.4182 C   0  0  0  0  0  0  0  0  0  0  0  0
    2.8655    0.6315   -0.1484 C   0  0  0  0  0  0  0  0  0  0  0  0
    2.9148    0.8768    1.3610 C   0  0  0  0  0  0  0  0  0  0  0  0
    3.4165    2.2968    1.6308 C   0  0  0  0  0  0  0  0  0  0  0  0
    3.2506   -1.7304    0.1888 O   0  0  0  0  0  0  0  0  0  0  0  0
    3.0048   -3.0866   -0.1883 C   0  0  0  0  0  0  0  0  0  0  0  0
    4.0074   -4.0019    0.5173 C   0  0  0  0  0  0  0  0  0  0  0  0
   -1.2390    1.8258    0.6073 H   0  0  0  0  0  0  0  0  0  0  0  0
    0.5395    1.8878    0.5717 H   0  0  0  0  0  0  0  0  0  0  0  0
    0.4463    3.4715   -1.3340 H   0  0  0  0  0  0  0  0  0  0  0  0
   -1.3323    3.4095   -1.2985 H   0  0  0  0  0  0  0  0  0  0  0  0
   -1.3166    4.2888    1.0200 H   0  0  0  0  0  0  0  0  0  0  0  0
    0.4620    4.3508    0.9844 H   0  0  0  0  0  0  0  0  0  0  0  0
    0.3687    5.9344   -0.9213 H   0  0  0  0  0  0  0  0  0  0  0  0
   -1.4098    5.8724   -0.8858 H   0  0  0  0  0  0  0  0  0  0  0  0
   -0.5162    6.5738    0.4845 H   0  0  0  0  0  0  0  0  0  0  0  0
   -3.1430    0.0528   -0.6016 H   0  0  0  0  0  0  0  0  0  0  0  0
   -3.0065   -1.6248   -1.1806 H   0  0  0  0  0  0  0  0  0  0  0  0
   -3.6501   -2.4528    1.0663 H   0  0  0  0  0  0  0  0  0  0  0  0
   -3.7867   -0.7752    1.6454 H   0  0  0  0  0  0  0  0  0  0  0  0
   -5.5474   -0.3353   -0.0443 H   0  0  0  0  0  0  0  0  0  0  0  0
   -5.4109   -2.0129   -0.6233 H   0  0  0  0  0  0  0  0  0  0  0  0
   -6.0546   -2.8408    1.6236 H   0  0  0  0  0  0  0  0  0  0  0  0
   -6.1911   -1.1632    2.2027 H   0  0  0  0  0  0  0  0  0  0  0  0
   -7.3075   -1.7677    0.9551 H   0  0  0  0  0  0  0  0  0  0  0  0
    2.3287   -0.9633   -1.4935 H   0  0  0  0  0  0  0  0  0  0  0  0
    3.8643    0.7499   -0.5685 H   0  0  0  0  0  0  0  0  0  0  0  0
    2.1891    1.3500   -0.6114 H   0  0  0  0  0  0  0  0  0  0  0  0
    1.9160    0.7585    1.7811 H   0  0  0  0  0  0  0  0  0  0  0  0
    3.5912    0.1584    1.8240 H   0  0  0  0  0  0  0  0  0  0  0  0
    3.4516    2.4716    2.7061 H   0  0  0  0  0  0  0  0  0  0  0  0
    4.4153    2.4152    1.2106 H   0  0  0  0  0  0  0  0  0  0  0  0
    2.7401    3.0153    1.1678 H   0  0  0  0  0  0  0  0  0  0  0  0
    1.9917   -3.3662    0.1008 H   0  0  0  0  0  0  0  0  0  0  0  0
    3.1161   -3.1895   -1.2677 H   0  0  0  0  0  0  0  0  0  0  0  0
    5.0205   -3.7223    0.2282 H   0  0  0  0  0  0  0  0  0  0  0  0
    3.8961   -3.8990    1.5967 H   0  0  0  0  0  0  0  0  0  0  0  0
    3.8199   -5.0364    0.2297 H   0  0  0  0  0  0  0  0  0  0  0  0
  1  2  2  0  0  0  0
  1  3  1  0  0  0  0
  3  4  1  0  0  0  0
  4  5  1  0  0  0  0
  5  6  1  0  0  0  0
  6  7  1  0  0  0  0
  1  8  1  0  0  0  0
  8  9  1  0  0  0  0
  9 10  1  0  0  0  0
 10 11  1  0  0  0  0
 11 12  1  0  0  0  0
  1 13  1  0  0  0  0
 13 14  1  0  0  0  0
 14 15  1  0  0  0  0
 15 16  1  0  0  0  0
 16 17  1  0  0  0  0
 14 18  1  0  0  0  0
 18 19  1  0  0  0  0
 19 20  1  0  0  0  0
  4 21  1  0  0  0  0
  4 22  1  0  0  0  0
  5 23  1  0  0  0  0
  5 24  1  0  0  0  0
  6 25  1  0  0  0  0
  6 26  1  0  0  0  0
  7 27  1  0  0  0  0
  7 28  1  0  0  0  0
  7 29  1  0  0  0  0
  9 30  1  0  0  0  0
  9 31  1  0  0  0  0
 10 32  1  0  0  0  0
 10 33  1  0  0  0  0
 11 34  1  0  0  0  0
 11 35  1  0  0  0  0
 12 36  1  0  0  0  0
 12 37  1  0  0  0  0
 12 38  1  0  0  0  0
 14 39  1  0  0  0  0
 15 40  1  0  0  0  0
 15 41  1  0  0  0  0
 16 42  1  0  0  0  0
 16 43  1  0  0  0  0
 17 44  1  0  0  0  0
 17 45  1  0  0  0  0
 17 46  1  0  0  0  0
 19 47  1  0  0  0  0
 19 48  1  0  0  0  0
 20 49  1  0  0  0  0
 20 50  1  0  0  0  0
 20 51  1  0  0  0  0
M  END
$$$$
