C8H6Cl2O3
APtclcactv12151716253D 0   0.00000     0.00000
 
 19 19  0  0  0  0  0  0  0  0999 V2000
   -0.2850    2.1911   -0.1725 C   0  0  0  0  0  0  0  0  0  0  0  0
    1.0868    2.0128   -0.1131 C   0  0  0  0  0  0  0  0  0  0  0  0
    1.5924   -2.3407   -0.8455 C   0  0  0  0  0  0  0  0  0  0  0  0
   -0.6057   -0.1754    0.1107 C   0  0  0  0  0  0  0  0  0  0  0  0
    0.7843   -0.3509    0.1698 C   0  0  0  0  0  0  0  0  0  0  0  0
   -1.1332    1.1086   -0.0620 C   0  0  0  0  0  0  0  0  0  0  0  0
    1.6214    0.7496    0.0568 C   0  0  0  0  0  0  0  0  0  0  0  0
   -1.9040   -1.6870    1.3218 O   0  0  0  0  0  0  0  0  0  0  0  0
   -1.8850   -2.0094   -0.8750 O   0  0  0  0  0  0  0  0  0  0  0  0
   -1.5050   -1.3364    0.2289 C   0  0  0  0  0  0  0  0  0  0  0  0
    1.3081   -1.5911    0.3374 O   0  0  0  0  0  0  0  0  0  0  0  0
   -2.4758   -2.7642   -0.7473 H   0  0  0  0  0  0  0  0  0  0  0  0
   -2.8521    1.3396   -0.1368 Cl  0  0  0  0  0  0  0  0  0  0  0  0
    3.3432    0.5397    0.1284 Cl  0  0  0  0  0  0  0  0  0  0  0  0
    2.0058   -3.3110   -0.5703 H   0  0  0  0  0  0  0  0  0  0  0  0
    0.6735   -2.4852   -1.4137 H   0  0  0  0  0  0  0  0  0  0  0  0
    2.3148   -1.7976   -1.4549 H   0  0  0  0  0  0  0  0  0  0  0  0
   -0.6930    3.1828   -0.3014 H   0  0  0  0  0  0  0  0  0  0  0  0
    1.7431    2.8660   -0.2004 H   0  0  0  0  0  0  0  0  0  0  0  0
  4  5  1  0  0  0  0
  4  6  2  0  0  0  0
  4 10  1  0  0  0  0
  5  7  2  0  0  0  0
  5 11  1  0  0  0  0
  1  6  1  0  0  0  0
  6 13  1  0  0  0  0
  9 10  1  0  0  0  0
  8 10  2  0  0  0  0
  2  7  1  0  0  0  0
  7 14  1  0  0  0  0
  3 11  1  0  0  0  0
  3 15  1  0  0  0  0
  3 16  1  0  0  0  0
  3 17  1  0  0  0  0
  1  2  2  0  0  0  0
  1 18  1  0  0  0  0
  9 12  1  0  0  0  0
  2 19  1  0  0  0  0
M  END
$$$$
