C4H7Cl2O4P
APtclcactv12211716383D 0   0.00000     0.00000
 
 18 17  0  0  0  0  0  0  0  0999 V2000
    1.6677    0.6820    1.6697 O   0  0  0  0  0  0  0  0  0  0  0  0
    1.6120    0.1162    0.3033 P   0  0  0  0  0  0  0  0  0  0  0  0
    2.7222   -1.0405    0.1557 O   0  0  0  0  0  0  0  0  0  0  0  0
    4.1080   -0.8289    0.4326 C   0  0  0  0  0  0  0  0  0  0  0  0
    0.1507   -0.5057    0.0391 O   0  0  0  0  0  0  0  0  0  0  0  0
   -0.8678    0.3692    0.2457 C   0  0  0  0  0  0  0  0  0  0  0  0
   -2.1153   -0.0164    0.0636 C   0  0  0  0  0  0  0  0  0  0  0  0
   -2.4565   -1.6423   -0.4402 Cl  0  0  0  0  0  0  0  0  0  0  0  0
   -3.4168    1.1017    0.3276 Cl  0  0  0  0  0  0  0  0  0  0  0  0
    1.9026    1.2792   -0.7715 O   0  0  0  0  0  0  0  0  0  0  0  0
    1.9187    1.0493   -2.1818 C   0  0  0  0  0  0  0  0  0  0  0  0
    4.6581   -1.7542    0.2614 H   0  0  0  0  0  0  0  0  0  0  0  0
    4.4949   -0.0495   -0.2238 H   0  0  0  0  0  0  0  0  0  0  0  0
    4.2282   -0.5217    1.4715 H   0  0  0  0  0  0  0  0  0  0  0  0
   -0.6556    1.3807    0.5591 H   0  0  0  0  0  0  0  0  0  0  0  0
    2.6865    0.3136   -2.4212 H   0  0  0  0  0  0  0  0  0  0  0  0
    0.9456    0.6756   -2.5001 H   0  0  0  0  0  0  0  0  0  0  0  0
    2.1365    1.9834   -2.6997 H   0  0  0  0  0  0  0  0  0  0  0  0
  1  2  2  0  0  0  0
  2  3  1  0  0  0  0
  3  4  1  0  0  0  0
  2  5  1  0  0  0  0
  5  6  1  0  0  0  0
  6  7  2  0  0  0  0
  7  8  1  0  0  0  0
  7  9  1  0  0  0  0
  2 10  1  0  0  0  0
 10 11  1  0  0  0  0
  4 12  1  0  0  0  0
  4 13  1  0  0  0  0
  4 14  1  0  0  0  0
  6 15  1  0  0  0  0
 11 16  1  0  0  0  0
 11 17  1  0  0  0  0
 11 18  1  0  0  0  0
M  END
$$$$
