C9H9Cl2NO2
APtclcactv12151716433D 0   0.00000     0.00000
 
 23 23  0  0  0  0  0  0  0  0999 V2000
    0.6110    0.7101    0.5016 C   0  0  0  0  0  0  0  0  0  0  0  0
    0.3418   -1.6666    0.3860 C   0  0  0  0  0  0  0  0  0  0  0  0
    1.6717   -1.8018    0.0350 C   0  0  0  0  0  0  0  0  0  0  0  0
   -1.6386   -0.2653    1.0023 C   0  0  0  0  0  0  0  0  0  0  0  0
   -6.0206    0.3254   -0.9164 C   0  0  0  0  0  0  0  0  0  0  0  0
   -4.1974    0.1712   -1.9934 H   0  0  0  0  0  0  0  0  0  0  0  0
   -0.1884   -0.4111    0.6192 C   0  0  0  0  0  0  0  0  0  0  0  0
    1.9424    0.5767    0.1503 C   0  0  0  0  0  0  0  0  0  0  0  0
    2.4733   -0.6805   -0.0832 C   0  0  0  0  0  0  0  0  0  0  0  0
   -4.2451    0.0261    1.0909 O   0  0  0  0  0  0  0  0  0  0  0  0
   -3.7714    0.0269   -0.0281 C   0  0  0  0  0  0  0  0  0  0  0  0
   -2.4433   -0.1155   -0.1970 O   0  0  0  0  0  0  0  0  0  0  0  0
    2.9468    1.9848    0.0019 Cl  0  0  0  0  0  0  0  0  0  0  0  0
    4.1440   -0.8497   -0.5235 Cl  0  0  0  0  0  0  0  0  0  0  0  0
   -4.5755    0.1705   -1.1002 N   0  0  0  0  0  0  0  0  0  0  0  0
    0.1951    1.6908    0.6795 H   0  0  0  0  0  0  0  0  0  0  0  0
   -0.2838   -2.5422    0.4781 H   0  0  0  0  0  0  0  0  0  0  0  0
   -1.9612   -1.1521    1.5479 H   0  0  0  0  0  0  0  0  0  0  0  0
   -1.7608    0.6145    1.6341 H   0  0  0  0  0  0  0  0  0  0  0  0
    2.0853   -2.7828   -0.1463 H   0  0  0  0  0  0  0  0  0  0  0  0
   -6.5017    0.4275   -1.8891 H   0  0  0  0  0  0  0  0  0  0  0  0
   -6.4179   -0.5512   -0.4047 H   0  0  0  0  0  0  0  0  0  0  0  0
   -6.2175    1.2153   -0.3185 H   0  0  0  0  0  0  0  0  0  0  0  0
  1  7  2  0  0  0  0
  2  7  1  0  0  0  0
  4  7  1  0  0  0  0
  1  8  1  0  0  0  0
  2  3  2  0  0  0  0
  4 12  1  0  0  0  0
  8  9  2  0  0  0  0
  8 13  1  0  0  0  0
 11 12  1  0  0  0  0
  9 14  1  0  0  0  0
 11 15  1  0  0  0  0
 10 11  2  0  0  0  0
  5 15  1  0  0  0  0
  3  9  1  0  0  0  0
  1 16  1  0  0  0  0
  2 17  1  0  0  0  0
  4 18  1  0  0  0  0
  4 19  1  0  0  0  0
  3 20  1  0  0  0  0
  6 15  1  0  0  0  0
  5 21  1  0  0  0  0
  5 22  1  0  0  0  0
  5 23  1  0  0  0  0
M  END
$$$$
