C7H3Cl2N
APtclcactv12211717013D 0   0.00000     0.00000
 
 13 13  0  0  0  0  0  0  0  0999 V2000
   -1.2001    1.8220   -0.0003 C   0  0  0  0  0  0  0  0  0  0  0  0
    0.0000    2.5100    0.0003 C   0  0  0  0  0  0  0  0  0  0  0  0
    1.2001    1.8220    0.0002 C   0  0  0  0  0  0  0  0  0  0  0  0
   -1.2084    0.4412   -0.0005 C   0  0  0  0  0  0  0  0  0  0  0  0
   -0.0000   -0.2613   -0.0001 C   0  0  0  0  0  0  0  0  0  0  0  0
    1.2084    0.4412   -0.0000 C   0  0  0  0  0  0  0  0  0  0  0  0
   -2.7157   -0.4201   -0.0001 Cl  0  0  0  0  0  0  0  0  0  0  0  0
    2.7157   -0.4201   -0.0001 Cl  0  0  0  0  0  0  0  0  0  0  0  0
   -0.0000   -1.6933    0.0002 C   0  0  0  0  0  0  0  0  0  0  0  0
   -0.0000   -2.8293    0.0004 N   0  0  0  0  0  0  0  0  0  0  0  0
   -2.1330    2.3662    0.0039 H   0  0  0  0  0  0  0  0  0  0  0  0
    0.0000    3.5900    0.0005 H   0  0  0  0  0  0  0  0  0  0  0  0
    2.1330    2.3662   -0.0001 H   0  0  0  0  0  0  0  0  0  0  0  0
  4  5  2  0  0  0  0
  1  4  1  0  0  0  0
  4  7  1  0  0  0  0
  5  6  1  0  0  0  0
  5  9  1  0  0  0  0
  1  2  2  0  0  0  0
  2  3  1  0  0  0  0
  3  6  2  0  0  0  0
  6  8  1  0  0  0  0
  9 10  3  0  0  0  0
  1 11  1  0  0  0  0
  2 12  1  0  0  0  0
  3 13  1  0  0  0  0
M  END
$$$$
