C9H8Cl2O3
APtclcactv12151716423D 0   0.00000     0.00000
 
 22 22  0  0  0  0  0  0  0  0999 V2000
    0.4141    1.3085   -0.0119 C   0  0  0  0  0  0  0  0  0  0  0  0
    2.2537   -0.7615    0.0213 C   0  0  0  0  0  0  0  0  0  0  0  0
    1.7640    1.5846    0.0889 C   0  0  0  0  0  0  0  0  0  0  0  0
   -2.4014    1.4941   -1.4541 C   0  0  0  0  0  0  0  0  0  0  0  0
   -0.0198   -0.0061   -0.0965 C   0  0  0  0  0  0  0  0  0  0  0  0
    0.9037   -1.0422   -0.0796 C   0  0  0  0  0  0  0  0  0  0  0  0
    2.6836    0.5507    0.1051 C   0  0  0  0  0  0  0  0  0  0  0  0
   -3.7613   -0.8415    0.6077 O   0  0  0  0  0  0  0  0  0  0  0  0
   -4.5997    1.2026    0.5618 O   0  0  0  0  0  0  0  0  0  0  0  0
   -3.5915    0.3341    0.3864 C   0  0  0  0  0  0  0  0  0  0  0  0
   -1.3478   -0.2796   -0.1952 O   0  0  0  0  0  0  0  0  0  0  0  0
   -5.4431    0.8405    0.8664 H   0  0  0  0  0  0  0  0  0  0  0  0
   -2.2476    0.8253   -0.0866 C   0  0  0  0  0  0  0  0  0  0  0  0
    0.3642   -2.6888   -0.1859 Cl  0  0  0  0  0  0  0  0  0  0  0  0
    4.3792    0.9009    0.2324 Cl  0  0  0  0  0  0  0  0  0  0  0  0
   -1.8522    1.5468    0.6284 H   0  0  0  0  0  0  0  0  0  0  0  0
   -1.4293    1.8493   -1.7962 H   0  0  0  0  0  0  0  0  0  0  0  0
   -2.7967    0.7725   -2.1690 H   0  0  0  0  0  0  0  0  0  0  0  0
   -3.0877    2.3369   -1.3712 H   0  0  0  0  0  0  0  0  0  0  0  0
   -0.3033    2.1158   -0.0204 H   0  0  0  0  0  0  0  0  0  0  0  0
    2.9730   -1.5671    0.0349 H   0  0  0  0  0  0  0  0  0  0  0  0
    2.1018    2.6082    0.1547 H   0  0  0  0  0  0  0  0  0  0  0  0
 11 13  1  0  0  0  0
 10 13  1  0  0  0  0
  4 13  1  0  0  0  0
  5 11  1  0  0  0  0
  5  6  2  0  0  0  0
  1  5  1  0  0  0  0
  9 10  1  0  0  0  0
  8 10  2  0  0  0  0
  6 14  1  0  0  0  0
  2  6  1  0  0  0  0
  1  3  2  0  0  0  0
  2  7  2  0  0  0  0
  3  7  1  0  0  0  0
  7 15  1  0  0  0  0
 13 16  1  0  0  0  0
  4 17  1  0  0  0  0
  4 18  1  0  0  0  0
  4 19  1  0  0  0  0
  1 20  1  0  0  0  0
  9 12  1  0  0  0  0
  2 21  1  0  0  0  0
  3 22  1  0  0  0  0
M  END
$$$$
