C10H13Cl2O3PS
APtclcactv12211717253D 0   0.00000     0.00000
 
 30 30  0  0  0  0  0  0  0  0999 V2000
    1.3038    1.5342    0.4574 C   0  0  0  0  0  0  0  0  0  0  0  0
    2.9161   -0.7120    0.2964 C   0  0  0  0  0  0  0  0  0  0  0  0
    2.5962    1.6433   -0.0185 C   0  0  0  0  0  0  0  0  0  0  0  0
   -2.2797   -1.2564   -1.9011 C   0  0  0  0  0  0  0  0  0  0  0  0
   -4.1699    0.9534    0.1210 C   0  0  0  0  0  0  0  0  0  0  0  0
   -2.1184   -2.6933   -2.4013 C   0  0  0  0  0  0  0  0  0  0  0  0
   -5.3622    1.0987    1.0688 C   0  0  0  0  0  0  0  0  0  0  0  0
    0.8137    0.2990    0.8546 C   0  0  0  0  0  0  0  0  0  0  0  0
    1.6233   -0.8256    0.7732 C   0  0  0  0  0  0  0  0  0  0  0  0
    3.4021    0.5213   -0.0996 C   0  0  0  0  0  0  0  0  0  0  0  0
   -0.4576    0.1899    1.3236 O   0  0  0  0  0  0  0  0  0  0  0  0
   -1.6204   -1.1137   -0.6414 O   0  0  0  0  0  0  0  0  0  0  0  0
   -3.0235    0.5266    0.8597 O   0  0  0  0  0  0  0  0  0  0  0  0
    1.0130   -2.3733    1.2690 Cl  0  0  0  0  0  0  0  0  0  0  0  0
    5.0258    0.6618   -0.6975 Cl  0  0  0  0  0  0  0  0  0  0  0  0
   -1.5870    0.2712    0.1790 P   0  0  0  0  0  0  0  0  0  0  0  0
   -1.1928    1.6728   -0.9842 S   0  0  0  0  0  0  0  0  0  0  0  0
    0.6769    2.4110    0.5242 H   0  0  0  0  0  0  0  0  0  0  0  0
    3.5468   -1.5864    0.2330 H   0  0  0  0  0  0  0  0  0  0  0  0
    2.9778    2.6051   -0.3278 H   0  0  0  0  0  0  0  0  0  0  0  0
   -1.8378   -0.5689   -2.6224 H   0  0  0  0  0  0  0  0  0  0  0  0
   -3.3393   -1.0290   -1.7845 H   0  0  0  0  0  0  0  0  0  0  0  0
   -4.4034    0.2150   -0.6461 H   0  0  0  0  0  0  0  0  0  0  0  0
   -3.9615    1.9137   -0.3505 H   0  0  0  0  0  0  0  0  0  0  0  0
   -2.5603   -3.3808   -1.6800 H   0  0  0  0  0  0  0  0  0  0  0  0
   -2.6213   -2.8021   -3.3622 H   0  0  0  0  0  0  0  0  0  0  0  0
   -1.0588   -2.9207   -2.5179 H   0  0  0  0  0  0  0  0  0  0  0  0
   -5.5706    0.1383    1.5403 H   0  0  0  0  0  0  0  0  0  0  0  0
   -5.1287    1.8370    1.8359 H   0  0  0  0  0  0  0  0  0  0  0  0
   -6.2366    1.4242    0.5053 H   0  0  0  0  0  0  0  0  0  0  0  0
  8 11  1  0  0  0  0
  8  9  2  0  0  0  0
  1  8  1  0  0  0  0
 11 16  1  0  0  0  0
  2  9  1  0  0  0  0
  9 14  1  0  0  0  0
  1  3  2  0  0  0  0
 12 16  1  0  0  0  0
 13 16  1  0  0  0  0
 16 17  2  0  0  0  0
  2 10  2  0  0  0  0
  4 12  1  0  0  0  0
  5 13  1  0  0  0  0
 10 15  1  0  0  0  0
  4  6  1  0  0  0  0
  5  7  1  0  0  0  0
  3 10  1  0  0  0  0
  1 18  1  0  0  0  0
  2 19  1  0  0  0  0
  3 20  1  0  0  0  0
  4 21  1  0  0  0  0
  4 22  1  0  0  0  0
  5 23  1  0  0  0  0
  5 24  1  0  0  0  0
  6 25  1  0  0  0  0
  6 26  1  0  0  0  0
  6 27  1  0  0  0  0
  7 28  1  0  0  0  0
  7 29  1  0  0  0  0
  7 30  1  0  0  0  0
M  END
$$$$
