CCl2F2
APtclcactv12101715323D 0   0.00000     0.00000
 
  5  4  0  0  0  0  0  0  0  0999 V2000
   -1.4721    0.6844   -0.0000 Cl  0  0  0  0  0  0  0  0  0  0  0  0
    0.0000   -0.3566   -0.0000 C   0  0  0  0  0  0  0  0  0  0  0  0
    0.0000   -1.1643    1.1423 F   0  0  0  0  0  0  0  0  0  0  0  0
   -0.0000   -1.1643   -1.1423 F   0  0  0  0  0  0  0  0  0  0  0  0
    1.4721    0.6844   -0.0000 Cl  0  0  0  0  0  0  0  0  0  0  0  0
  1  2  1  0  0  0  0
  2  3  1  0  0  0  0
  2  4  1  0  0  0  0
  2  5  1  0  0  0  0
M  END
$$$$
