C14H9Cl5O
APtclcactv12091702553D 0   0.00000     0.00000
 
 29 30  0  0  0  0  0  0  0  0999 V2000
    3.2682    0.4674    0.6783 C   0  0  0  0  0  0  0  0  0  0  0  0
    2.1350   -0.2935    0.4608 C   0  0  0  0  0  0  0  0  0  0  0  0
    2.5719    1.9919   -1.0340 C   0  0  0  0  0  0  0  0  0  0  0  0
    1.4395    1.2297   -1.2512 C   0  0  0  0  0  0  0  0  0  0  0  0
   -2.3443   -0.0063   -1.2820 C   0  0  0  0  0  0  0  0  0  0  0  0
   -1.2586    0.9410    0.6308 C   0  0  0  0  0  0  0  0  0  0  0  0
   -2.3822    1.7023    0.8923 C   0  0  0  0  0  0  0  0  0  0  0  0
   -3.4684    0.7544   -1.0215 C   0  0  0  0  0  0  0  0  0  0  0  0
   -0.0530   -0.4594   -2.7456 H   0  0  0  0  0  0  0  0  0  0  0  0
    3.4873    1.6108   -0.0691 C   0  0  0  0  0  0  0  0  0  0  0  0
    1.2209    0.0876   -0.5037 C   0  0  0  0  0  0  0  0  0  0  0  0
   -1.2396    0.0870   -0.4562 C   0  0  0  0  0  0  0  0  0  0  0  0
   -3.4879    1.6096    0.0659 C   0  0  0  0  0  0  0  0  0  0  0  0
   -0.0404   -1.1801   -2.1009 O   0  0  0  0  0  0  0  0  0  0  0  0
    4.9101    2.5673    0.2039 Cl  0  0  0  0  0  0  0  0  0  0  0  0
   -4.8993    2.5659    0.3934 Cl  0  0  0  0  0  0  0  0  0  0  0  0
    0.0370   -1.4082    1.9023 Cl  0  0  0  0  0  0  0  0  0  0  0  0
    1.4700   -2.9527   -0.1543 Cl  0  0  0  0  0  0  0  0  0  0  0  0
   -1.4737   -2.9534   -0.0975 Cl  0  0  0  0  0  0  0  0  0  0  0  0
   -0.0142   -0.7427   -0.7407 C   0  0  0  0  0  0  0  0  0  0  0  0
    0.0040   -1.9600    0.1861 C   0  0  0  0  0  0  0  0  0  0  0  0
    3.9802    0.1718    1.4347 H   0  0  0  0  0  0  0  0  0  0  0  0
    1.9638   -1.1861    1.0442 H   0  0  0  0  0  0  0  0  0  0  0  0
    2.7426    2.8842   -1.6180 H   0  0  0  0  0  0  0  0  0  0  0  0
    0.7249    1.5271   -2.0043 H   0  0  0  0  0  0  0  0  0  0  0  0
   -2.3306   -0.6772   -2.1282 H   0  0  0  0  0  0  0  0  0  0  0  0
   -0.3954    1.0132    1.2758 H   0  0  0  0  0  0  0  0  0  0  0  0
   -2.3971    2.3691    1.7417 H   0  0  0  0  0  0  0  0  0  0  0  0
   -4.3313    0.6817   -1.6669 H   0  0  0  0  0  0  0  0  0  0  0  0
  1  2  2  0  0  0  0
  1 10  1  0  0  0  0
  2 11  1  0  0  0  0
  3 10  2  0  0  0  0
 10 15  1  0  0  0  0
  3  4  1  0  0  0  0
  4 11  2  0  0  0  0
 11 20  1  0  0  0  0
 20 21  1  0  0  0  0
 12 20  1  0  0  0  0
 14 20  1  0  0  0  0
 17 21  1  0  0  0  0
 18 21  1  0  0  0  0
 19 21  1  0  0  0  0
  5 12  2  0  0  0  0
  6 12  1  0  0  0  0
  5  8  1  0  0  0  0
  6  7  2  0  0  0  0
  7 13  1  0  0  0  0
  8 13  2  0  0  0  0
 13 16  1  0  0  0  0
  1 22  1  0  0  0  0
  2 23  1  0  0  0  0
  3 24  1  0  0  0  0
  4 25  1  0  0  0  0
  9 14  1  0  0  0  0
  5 26  1  0  0  0  0
  6 27  1  0  0  0  0
  7 28  1  0  0  0  0
  8 29  1  0  0  0  0
M  END
$$$$
