C2H4N4
APtclcactv12101715343D 0   0.00000     0.00000
 
 10  9  0  0  0  0  0  0  0  0999 V2000
   -0.2446    1.7079    0.0010 H   0  0  0  0  0  0  0  0  0  0  0  0
    1.4191    1.9424   -0.0004 H   0  0  0  0  0  0  0  0  0  0  0  0
    2.2478   -1.4794    0.0047 H   0  0  0  0  0  0  0  0  0  0  0  0
    2.8765    0.0786    0.0018 H   0  0  0  0  0  0  0  0  0  0  0  0
    0.8456   -0.0077   -0.0020 C   0  0  0  0  0  0  0  0  0  0  0  0
    0.6549    1.3449   -0.0003 N   0  0  0  0  0  0  0  0  0  0  0  0
    2.1124   -0.5189    0.0018 N   0  0  0  0  0  0  0  0  0  0  0  0
   -0.1954   -0.8218   -0.0019 N   0  0  0  0  0  0  0  0  0  0  0  0
   -1.4519   -0.3147   -0.0000 C   0  0  0  0  0  0  0  0  0  0  0  0
   -2.5054    0.1104    0.0015 N   0  0  0  0  0  0  0  0  0  0  0  0
  5  8  2  0  0  0  0
  8  9  1  0  0  0  0
  5  6  1  0  0  0  0
  5  7  1  0  0  0  0
  9 10  3  0  0  0  0
  1  6  1  0  0  0  0
  2  6  1  0  0  0  0
  3  7  1  0  0  0  0
  4  7  1  0  0  0  0
M  END
$$$$
