C13H16O4
APtclcactv12071713273D 0   0.00000     0.00000
 
 33 33  0  0  0  0  0  0  0  0999 V2000
   -0.6526    0.4856   -0.0589 C   0  0  0  0  0  0  0  0  0  0  0  0
   -1.9883   -0.1252    0.0588 C   0  0  0  0  0  0  0  0  0  0  0  0
   -3.1392    0.6506   -0.1431 C   0  0  0  0  0  0  0  0  0  0  0  0
   -3.0283    1.9675   -0.4484 O   0  0  0  0  0  0  0  0  0  0  0  0
   -4.3909    0.0649   -0.0297 C   0  0  0  0  0  0  0  0  0  0  0  0
   -4.5023   -1.2761    0.2811 C   0  0  0  0  0  0  0  0  0  0  0  0
   -3.3682   -2.0460    0.4814 C   0  0  0  0  0  0  0  0  0  0  0  0
   -2.1160   -1.4825    0.3667 C   0  0  0  0  0  0  0  0  0  0  0  0
   -0.5458    1.6646   -0.3316 O   0  0  0  0  0  0  0  0  0  0  0  0
    0.4522   -0.2636    0.1417 O   0  0  0  0  0  0  0  0  0  0  0  0
    1.6399    0.3551    0.0191 C   0  0  0  0  0  0  0  0  0  0  0  0
    2.9169   -0.4171    0.2287 C   0  0  0  0  0  0  0  0  0  0  0  0
    2.9913   -1.5636   -0.7817 C   0  0  0  0  0  0  0  0  0  0  0  0
    4.2135   -2.4325   -0.4780 C   0  0  0  0  0  0  0  0  0  0  0  0
    4.1144    0.5146    0.0319 C   0  0  0  0  0  0  0  0  0  0  0  0
    4.1302    1.5664    1.1429 C   0  0  0  0  0  0  0  0  0  0  0  0
    1.6831    1.5300   -0.2591 O   0  0  0  0  0  0  0  0  0  0  0  0
   -2.9806    2.1487   -1.3971 H   0  0  0  0  0  0  0  0  0  0  0  0
   -5.2800    0.6582   -0.1843 H   0  0  0  0  0  0  0  0  0  0  0  0
   -5.4796   -1.7272    0.3690 H   0  0  0  0  0  0  0  0  0  0  0  0
   -3.4659   -3.0937    0.7244 H   0  0  0  0  0  0  0  0  0  0  0  0
   -1.2346   -2.0867    0.5237 H   0  0  0  0  0  0  0  0  0  0  0  0
    2.9344   -0.8226    1.2403 H   0  0  0  0  0  0  0  0  0  0  0  0
    2.0881   -2.1696   -0.7108 H   0  0  0  0  0  0  0  0  0  0  0  0
    3.0769   -1.1554   -1.7887 H   0  0  0  0  0  0  0  0  0  0  0  0
    5.1138   -1.8193   -0.5166 H   0  0  0  0  0  0  0  0  0  0  0  0
    4.1123   -2.8671    0.5165 H   0  0  0  0  0  0  0  0  0  0  0  0
    4.2851   -3.2301   -1.2175 H   0  0  0  0  0  0  0  0  0  0  0  0
    5.0362   -0.0659    0.0681 H   0  0  0  0  0  0  0  0  0  0  0  0
    4.0345    1.0096   -0.9359 H   0  0  0  0  0  0  0  0  0  0  0  0
    3.2684    2.2246    1.0325 H   0  0  0  0  0  0  0  0  0  0  0  0
    4.0871    1.0711    2.1129 H   0  0  0  0  0  0  0  0  0  0  0  0
    5.0464    2.1530    1.0749 H   0  0  0  0  0  0  0  0  0  0  0  0
  1  2  1  0  0  0  0
  2  3  1  0  0  0  0
  3  4  1  0  0  0  0
  3  5  2  0  0  0  0
  5  6  1  0  0  0  0
  6  7  2  0  0  0  0
  7  8  1  0  0  0  0
  2  8  2  0  0  0  0
  1  9  2  0  0  0  0
  1 10  1  0  0  0  0
 10 11  1  0  0  0  0
 11 12  1  0  0  0  0
 12 13  1  0  0  0  0
 13 14  1  0  0  0  0
 12 15  1  0  0  0  0
 15 16  1  0  0  0  0
 11 17  2  0  0  0  0
  4 18  1  0  0  0  0
  5 19  1  0  0  0  0
  6 20  1  0  0  0  0
  7 21  1  0  0  0  0
  8 22  1  0  0  0  0
 12 23  1  0  0  0  0
 13 24  1  0  0  0  0
 13 25  1  0  0  0  0
 14 26  1  0  0  0  0
 14 27  1  0  0  0  0
 14 28  1  0  0  0  0
 15 29  1  0  0  0  0
 15 30  1  0  0  0  0
 16 31  1  0  0  0  0
 16 32  1  0  0  0  0
 16 33  1  0  0  0  0
M  END
$$$$
