C12H21O6
APtclcactv12211717293D 0   0.00000     0.00000
 
 39 38  0  0  0  0  0  0  0  0999 V2000
    0.4086   -0.0675   -0.4245 C   0  0  0  0  0  0  0  0  0  0  0  0
   -0.9881    0.1735   -0.9365 C   0  0  0  0  0  0  0  0  0  0  0  0
   -2.0014   -0.2325    0.1356 C   0  0  0  0  0  0  0  0  0  0  0  0
   -3.4194    0.0122   -0.3842 C   0  0  0  0  0  0  0  0  0  0  0  0
   -4.4327   -0.3938    0.6879 C   0  0  0  0  0  0  0  0  0  0  0  0
   -5.8294   -0.1528    0.1759 C   0  0  0  0  0  0  0  0  0  0  0  0
   -5.9987    0.3016   -0.9427 O   0  0  0  0  0  0  0  0  0  0  0  0
   -6.7901   -0.4122    0.8804 O   0  5  0  0  0  0  0  0  0  0  0  0
    0.5764   -0.5178    0.6841 O   0  0  0  0  0  0  0  0  0  0  0  0
    1.4662    0.2129   -1.2021 O   0  0  0  0  0  0  0  0  0  0  0  0
    2.7814    0.0631   -0.6054 C   0  0  0  0  0  0  0  0  0  0  0  0
    3.8530    0.4275   -1.6348 C   0  0  0  0  0  0  0  0  0  0  0  0
    2.8929    0.9296    0.5254 O   0  0  0  0  0  0  0  0  0  0  0  0
    2.6116    2.3006    0.2370 C   0  0  0  0  0  0  0  0  0  0  0  0
    2.8379    3.1430    1.4941 C   0  0  0  0  0  0  0  0  0  0  0  0
    2.9633   -1.2913   -0.1875 O   0  0  0  0  0  0  0  0  0  0  0  0
    4.1840   -1.5227    0.5185 C   0  0  0  0  0  0  0  0  0  0  0  0
    4.2973   -3.0080    0.8680 C   0  0  0  0  0  0  0  0  0  0  0  0
   -1.1116    1.2307   -1.1713 H   0  0  0  0  0  0  0  0  0  0  0  0
   -1.1530   -0.4201   -1.8357 H   0  0  0  0  0  0  0  0  0  0  0  0
   -1.8779   -1.2897    0.3704 H   0  0  0  0  0  0  0  0  0  0  0  0
   -1.8365    0.3611    1.0348 H   0  0  0  0  0  0  0  0  0  0  0  0
   -3.5429    1.0694   -0.6190 H   0  0  0  0  0  0  0  0  0  0  0  0
   -3.5843   -0.5814   -1.2834 H   0  0  0  0  0  0  0  0  0  0  0  0
   -4.3092   -1.4510    0.9227 H   0  0  0  0  0  0  0  0  0  0  0  0
   -4.2678    0.1998    1.5871 H   0  0  0  0  0  0  0  0  0  0  0  0
    3.7142    1.4605   -1.9536 H   0  0  0  0  0  0  0  0  0  0  0  0
    4.8403    0.3150   -1.1869 H   0  0  0  0  0  0  0  0  0  0  0  0
    3.7679   -0.2335   -2.4974 H   0  0  0  0  0  0  0  0  0  0  0  0
    3.2727    2.6479   -0.5570 H   0  0  0  0  0  0  0  0  0  0  0  0
    1.5748    2.3990   -0.0845 H   0  0  0  0  0  0  0  0  0  0  0  0
    2.6234    4.1888    1.2741 H   0  0  0  0  0  0  0  0  0  0  0  0
    2.1768    2.7957    2.2880 H   0  0  0  0  0  0  0  0  0  0  0  0
    3.8748    3.0446    1.8155 H   0  0  0  0  0  0  0  0  0  0  0  0
    5.0270   -1.2316   -0.1082 H   0  0  0  0  0  0  0  0  0  0  0  0
    4.1914   -0.9323    1.4347 H   0  0  0  0  0  0  0  0  0  0  0  0
    3.4544   -3.2991    1.4947 H   0  0  0  0  0  0  0  0  0  0  0  0
    4.2899   -3.5984   -0.0482 H   0  0  0  0  0  0  0  0  0  0  0  0
    5.2284   -3.1845    1.4065 H   0  0  0  0  0  0  0  0  0  0  0  0
  1  2  1  0  0  0  0
  2  3  1  0  0  0  0
  3  4  1  0  0  0  0
  4  5  1  0  0  0  0
  5  6  1  0  0  0  0
  6  7  2  0  0  0  0
  6  8  1  0  0  0  0
  1  9  2  0  0  0  0
  1 10  1  0  0  0  0
 10 11  1  0  0  0  0
 11 12  1  0  0  0  0
 11 13  1  0  0  0  0
 13 14  1  0  0  0  0
 14 15  1  0  0  0  0
 11 16  1  0  0  0  0
 16 17  1  0  0  0  0
 17 18  1  0  0  0  0
  2 19  1  0  0  0  0
  2 20  1  0  0  0  0
  3 21  1  0  0  0  0
  3 22  1  0  0  0  0
  4 23  1  0  0  0  0
  4 24  1  0  0  0  0
  5 25  1  0  0  0  0
  5 26  1  0  0  0  0
 12 27  1  0  0  0  0
 12 28  1  0  0  0  0
 12 29  1  0  0  0  0
 14 30  1  0  0  0  0
 14 31  1  0  0  0  0
 15 32  1  0  0  0  0
 15 33  1  0  0  0  0
 15 34  1  0  0  0  0
 17 35  1  0  0  0  0
 17 36  1  0  0  0  0
 18 37  1  0  0  0  0
 18 38  1  0  0  0  0
 18 39  1  0  0  0  0
M  CHG  1   8  -1
M  END
$$$$
