C8H19O4P
APtclcactv12151716413D 0   0.00000     0.00000
 
 32 31  0  0  0  0  0  0  0  0999 V2000
   -0.5680   -0.2052   -0.4599 P   0  0  0  0  0  0  0  0  0  0  0  0
   -0.5154   -0.7197   -1.8466 O   0  0  0  0  0  0  0  0  0  0  0  0
   -0.9648    1.3550   -0.4811 O   0  0  0  0  0  0  0  0  0  0  0  0
   -1.0973    2.1405    0.7053 C   0  0  0  0  0  0  0  0  0  0  0  0
   -1.4817    3.5726    0.3285 C   0  0  0  0  0  0  0  0  0  0  0  0
   -1.6705   -1.0281    0.3764 O   0  0  0  0  0  0  0  0  0  0  0  0
   -3.0307   -1.1547   -0.0430 C   0  0  0  0  0  0  0  0  0  0  0  0
   -3.8023   -1.9960    0.9757 C   0  0  0  0  0  0  0  0  0  0  0  0
    0.8742   -0.3828    0.2334 O   0  0  0  0  0  0  0  0  0  0  0  0
    2.0785    0.1409   -0.3301 C   0  0  0  0  0  0  0  0  0  0  0  0
    3.2595   -0.2052    0.5788 C   0  0  0  0  0  0  0  0  0  0  0  0
    3.4529   -1.7227    0.6081 C   0  0  0  0  0  0  0  0  0  0  0  0
    4.5283    0.4603    0.0421 C   0  0  0  0  0  0  0  0  0  0  0  0
   -1.8723    1.7114    1.3404 H   0  0  0  0  0  0  0  0  0  0  0  0
   -0.1495    2.1483    1.2436 H   0  0  0  0  0  0  0  0  0  0  0  0
   -2.4295    3.5648   -0.2098 H   0  0  0  0  0  0  0  0  0  0  0  0
   -1.5828    4.1718    1.2334 H   0  0  0  0  0  0  0  0  0  0  0  0
   -0.7067    4.0017   -0.3067 H   0  0  0  0  0  0  0  0  0  0  0  0
   -3.4826   -0.1653   -0.1139 H   0  0  0  0  0  0  0  0  0  0  0  0
   -3.0666   -1.6412   -1.0177 H   0  0  0  0  0  0  0  0  0  0  0  0
   -3.3503   -2.9854    1.0466 H   0  0  0  0  0  0  0  0  0  0  0  0
   -3.7664   -1.5095    1.9504 H   0  0  0  0  0  0  0  0  0  0  0  0
   -4.8398   -2.0926    0.6558 H   0  0  0  0  0  0  0  0  0  0  0  0
    2.2384   -0.2960   -1.3159 H   0  0  0  0  0  0  0  0  0  0  0  0
    1.9957    1.2239   -0.4218 H   0  0  0  0  0  0  0  0  0  0  0  0
    3.0592    0.1551    1.5878 H   0  0  0  0  0  0  0  0  0  0  0  0
    3.6532   -2.0830   -0.4009 H   0  0  0  0  0  0  0  0  0  0  0  0
    4.2943   -1.9693    1.2557 H   0  0  0  0  0  0  0  0  0  0  0  0
    2.5490   -2.1968    0.9905 H   0  0  0  0  0  0  0  0  0  0  0  0
    4.3906    1.5414    0.0212 H   0  0  0  0  0  0  0  0  0  0  0  0
    5.3697    0.2137    0.6896 H   0  0  0  0  0  0  0  0  0  0  0  0
    4.7286    0.1000   -0.9670 H   0  0  0  0  0  0  0  0  0  0  0  0
  1  2  2  0  0  0  0
  1  3  1  0  0  0  0
  3  4  1  0  0  0  0
  4  5  1  0  0  0  0
  1  6  1  0  0  0  0
  6  7  1  0  0  0  0
  7  8  1  0  0  0  0
  1  9  1  0  0  0  0
  9 10  1  0  0  0  0
 10 11  1  0  0  0  0
 11 12  1  0  0  0  0
 11 13  1  0  0  0  0
  4 14  1  0  0  0  0
  4 15  1  0  0  0  0
  5 16  1  0  0  0  0
  5 17  1  0  0  0  0
  5 18  1  0  0  0  0
  7 19  1  0  0  0  0
  7 20  1  0  0  0  0
  8 21  1  0  0  0  0
  8 22  1  0  0  0  0
  8 23  1  0  0  0  0
 10 24  1  0  0  0  0
 10 25  1  0  0  0  0
 11 26  1  0  0  0  0
 12 27  1  0  0  0  0
 12 28  1  0  0  0  0
 12 29  1  0  0  0  0
 13 30  1  0  0  0  0
 13 31  1  0  0  0  0
 13 32  1  0  0  0  0
M  END
$$$$
