C4H10O2S
APtclcactv12211716413D 0   0.00000     0.00000
 
 17 16  0  0  0  0  0  0  0  0999 V2000
   -1.4090   -0.9727   -0.0000 C   0  0  0  0  0  0  0  0  0  0  0  0
   -2.7136   -0.1735    0.0000 C   0  0  0  0  0  0  0  0  0  0  0  0
   -0.0000    0.1699    0.0000 S   0  0  0  0  0  0  0  0  0  0  0  0
    0.0000    0.8887   -1.2258 O   0  0  0  0  0  0  0  0  0  0  0  0
    0.0000    0.8887    1.2258 O   0  0  0  0  0  0  0  0  0  0  0  0
    1.4090   -0.9727   -0.0000 C   0  0  0  0  0  0  0  0  0  0  0  0
    2.7136   -0.1735    0.0000 C   0  0  0  0  0  0  0  0  0  0  0  0
   -1.3675   -1.6006    0.8900 H   0  0  0  0  0  0  0  0  0  0  0  0
   -1.3675   -1.6006   -0.8900 H   0  0  0  0  0  0  0  0  0  0  0  0
   -3.5603   -0.8600   -0.0000 H   0  0  0  0  0  0  0  0  0  0  0  0
   -2.7551    0.4545    0.8900 H   0  0  0  0  0  0  0  0  0  0  0  0
   -2.7551    0.4545   -0.8900 H   0  0  0  0  0  0  0  0  0  0  0  0
    1.3675   -1.6006    0.8900 H   0  0  0  0  0  0  0  0  0  0  0  0
    1.3675   -1.6006   -0.8900 H   0  0  0  0  0  0  0  0  0  0  0  0
    2.7551    0.4545   -0.8900 H   0  0  0  0  0  0  0  0  0  0  0  0
    2.7551    0.4545    0.8900 H   0  0  0  0  0  0  0  0  0  0  0  0
    3.5603   -0.8600   -0.0000 H   0  0  0  0  0  0  0  0  0  0  0  0
  1  2  1  0  0  0  0
  1  3  1  0  0  0  0
  3  4  2  0  0  0  0
  3  5  2  0  0  0  0
  3  6  1  0  0  0  0
  6  7  1  0  0  0  0
  1  8  1  0  0  0  0
  1  9  1  0  0  0  0
  2 10  1  0  0  0  0
  2 11  1  0  0  0  0
  2 12  1  0  0  0  0
  6 13  1  0  0  0  0
  6 14  1  0  0  0  0
  7 15  1  0  0  0  0
  7 16  1  0  0  0  0
  7 17  1  0  0  0  0
M  END
$$$$
