C14H31O4P
APtclcactv12211717053D 0   0.00000     0.00000
 
 50 49  0  0  0  0  0  0  0  0999 V2000
   -3.6646   -0.2760   -0.4278 P   0  0  0  0  0  0  0  0  0  0  0  0
   -3.7700   -0.8095   -1.8043 O   0  0  0  0  0  0  0  0  0  0  0  0
   -3.9779    1.3031   -0.4388 O   0  0  0  0  0  0  0  0  0  0  0  0
   -3.9564    2.1091    0.7410 C   0  0  0  0  0  0  0  0  0  0  0  0
   -4.2976    3.5554    0.3770 C   0  0  0  0  0  0  0  0  0  0  0  0
   -4.7259   -1.0272    0.5216 O   0  0  0  0  0  0  0  0  0  0  0  0
   -6.1243   -1.0843    0.2330 C   0  0  0  0  0  0  0  0  0  0  0  0
   -6.8405   -1.8697    1.3335 C   0  0  0  0  0  0  0  0  0  0  0  0
   -2.1751   -0.5237    0.1311 O   0  0  0  0  0  0  0  0  0  0  0  0
   -1.0030   -0.0735   -0.5511 C   0  0  0  0  0  0  0  0  0  0  0  0
    0.2381   -0.4726    0.2497 C   0  0  0  0  0  0  0  0  0  0  0  0
    1.4931    0.0094   -0.4807 C   0  0  0  0  0  0  0  0  0  0  0  0
    2.7342   -0.3897    0.3202 C   0  0  0  0  0  0  0  0  0  0  0  0
    3.9892    0.0924   -0.4102 C   0  0  0  0  0  0  0  0  0  0  0  0
    5.2303   -0.3067    0.3906 C   0  0  0  0  0  0  0  0  0  0  0  0
    6.4853    0.1753   -0.3398 C   0  0  0  0  0  0  0  0  0  0  0  0
    7.7264   -0.2238    0.4610 C   0  0  0  0  0  0  0  0  0  0  0  0
    8.9815    0.2583   -0.2694 C   0  0  0  0  0  0  0  0  0  0  0  0
   10.2226   -0.1408    0.5314 C   0  0  0  0  0  0  0  0  0  0  0  0
   -4.6900    1.7309    1.4529 H   0  0  0  0  0  0  0  0  0  0  0  0
   -2.9631    2.0717    1.1885 H   0  0  0  0  0  0  0  0  0  0  0  0
   -5.2908    3.5928   -0.0705 H   0  0  0  0  0  0  0  0  0  0  0  0
   -4.2811    4.1702    1.2769 H   0  0  0  0  0  0  0  0  0  0  0  0
   -3.5639    3.9337   -0.3349 H   0  0  0  0  0  0  0  0  0  0  0  0
   -6.5275   -0.0727    0.1875 H   0  0  0  0  0  0  0  0  0  0  0  0
   -6.2775   -1.5800   -0.7256 H   0  0  0  0  0  0  0  0  0  0  0  0
   -7.9071   -1.9133    1.1134 H   0  0  0  0  0  0  0  0  0  0  0  0
   -6.4373   -2.8814    1.3791 H   0  0  0  0  0  0  0  0  0  0  0  0
   -6.6873   -1.3740    2.2921 H   0  0  0  0  0  0  0  0  0  0  0  0
   -0.9599   -0.5305   -1.5397 H   0  0  0  0  0  0  0  0  0  0  0  0
   -1.0361    1.0112   -0.6533 H   0  0  0  0  0  0  0  0  0  0  0  0
    0.1950   -0.0156    1.2384 H   0  0  0  0  0  0  0  0  0  0  0  0
    0.2713   -1.5573    0.3520 H   0  0  0  0  0  0  0  0  0  0  0  0
    1.5362   -0.4475   -1.4693 H   0  0  0  0  0  0  0  0  0  0  0  0
    1.4600    1.0941   -0.5829 H   0  0  0  0  0  0  0  0  0  0  0  0
    2.6911    0.0673    1.3088 H   0  0  0  0  0  0  0  0  0  0  0  0
    2.7674   -1.4743    0.4224 H   0  0  0  0  0  0  0  0  0  0  0  0
    4.0323   -0.3646   -1.3989 H   0  0  0  0  0  0  0  0  0  0  0  0
    3.9561    1.1771   -0.5125 H   0  0  0  0  0  0  0  0  0  0  0  0
    5.1873    0.1503    1.3792 H   0  0  0  0  0  0  0  0  0  0  0  0
    5.2635   -1.3914    0.4928 H   0  0  0  0  0  0  0  0  0  0  0  0
    6.5284   -0.2816   -1.3285 H   0  0  0  0  0  0  0  0  0  0  0  0
    6.4522    1.2600   -0.4420 H   0  0  0  0  0  0  0  0  0  0  0  0
    7.6834    0.2332    1.4497 H   0  0  0  0  0  0  0  0  0  0  0  0
    7.7596   -1.3084    0.5632 H   0  0  0  0  0  0  0  0  0  0  0  0
    9.0245   -0.1987   -1.2580 H   0  0  0  0  0  0  0  0  0  0  0  0
    8.9483    1.3430   -0.3716 H   0  0  0  0  0  0  0  0  0  0  0  0
   11.1166    0.2026    0.0111 H   0  0  0  0  0  0  0  0  0  0  0  0
   10.1795    0.3162    1.5201 H   0  0  0  0  0  0  0  0  0  0  0  0
   10.2557   -1.2255    0.6336 H   0  0  0  0  0  0  0  0  0  0  0  0
  1  2  2  0  0  0  0
  1  3  1  0  0  0  0
  3  4  1  0  0  0  0
  4  5  1  0  0  0  0
  1  6  1  0  0  0  0
  6  7  1  0  0  0  0
  7  8  1  0  0  0  0
  1  9  1  0  0  0  0
  9 10  1  0  0  0  0
 10 11  1  0  0  0  0
 11 12  1  0  0  0  0
 12 13  1  0  0  0  0
 13 14  1  0  0  0  0
 14 15  1  0  0  0  0
 15 16  1  0  0  0  0
 16 17  1  0  0  0  0
 17 18  1  0  0  0  0
 18 19  1  0  0  0  0
  4 20  1  0  0  0  0
  4 21  1  0  0  0  0
  5 22  1  0  0  0  0
  5 23  1  0  0  0  0
  5 24  1  0  0  0  0
  7 25  1  0  0  0  0
  7 26  1  0  0  0  0
  8 27  1  0  0  0  0
  8 28  1  0  0  0  0
  8 29  1  0  0  0  0
 10 30  1  0  0  0  0
 10 31  1  0  0  0  0
 11 32  1  0  0  0  0
 11 33  1  0  0  0  0
 12 34  1  0  0  0  0
 12 35  1  0  0  0  0
 13 36  1  0  0  0  0
 13 37  1  0  0  0  0
 14 38  1  0  0  0  0
 14 39  1  0  0  0  0
 15 40  1  0  0  0  0
 15 41  1  0  0  0  0
 16 42  1  0  0  0  0
 16 43  1  0  0  0  0
 17 44  1  0  0  0  0
 17 45  1  0  0  0  0
 18 46  1  0  0  0  0
 18 47  1  0  0  0  0
 19 48  1  0  0  0  0
 19 49  1  0  0  0  0
 19 50  1  0  0  0  0
M  END
$$$$
