C6H12O2
APtclcactv12211716583D 0   0.00000     0.00000
 
 20 19  0  0  0  0  0  0  0  0999 V2000
   -1.3863    1.1038   -0.2712 C   0  0  0  0  0  0  0  0  0  0  0  0
   -2.5349    0.4628    0.5103 C   0  0  0  0  0  0  0  0  0  0  0  0
   -0.0518    0.5739    0.2571 C   0  0  0  0  0  0  0  0  0  0  0  0
    0.0494   -0.9030   -0.0250 C   0  0  0  0  0  0  0  0  0  0  0  0
   -0.8533   -1.4732   -0.5906 O   0  0  0  0  0  0  0  0  0  0  0  0
    1.1423   -1.5849    0.3520 O   0  0  0  0  0  0  0  0  0  0  0  0
    1.0984    1.3058   -0.4374 C   0  0  0  0  0  0  0  0  0  0  0  0
    2.4283    0.8663    0.1784 C   0  0  0  0  0  0  0  0  0  0  0  0
   -1.4830    0.8556   -1.3282 H   0  0  0  0  0  0  0  0  0  0  0  0
   -1.4222    2.1861   -0.1474 H   0  0  0  0  0  0  0  0  0  0  0  0
   -2.4991   -0.6196    0.3865 H   0  0  0  0  0  0  0  0  0  0  0  0
   -2.4383    0.7110    1.5672 H   0  0  0  0  0  0  0  0  0  0  0  0
   -3.4857    0.8403    0.1339 H   0  0  0  0  0  0  0  0  0  0  0  0
    0.0063    0.7433    1.3323 H   0  0  0  0  0  0  0  0  0  0  0  0
    1.1616   -2.5303    0.1494 H   0  0  0  0  0  0  0  0  0  0  0  0
    1.0931    1.0650   -1.5004 H   0  0  0  0  0  0  0  0  0  0  0  0
    0.9758    2.3811   -0.3078 H   0  0  0  0  0  0  0  0  0  0  0  0
    3.2477    1.3877   -0.3164 H   0  0  0  0  0  0  0  0  0  0  0  0
    2.4336    1.1071    1.2415 H   0  0  0  0  0  0  0  0  0  0  0  0
    2.5509   -0.2090    0.0488 H   0  0  0  0  0  0  0  0  0  0  0  0
  1  2  1  0  0  0  0
  1  3  1  0  0  0  0
  3  4  1  0  0  0  0
  4  5  2  0  0  0  0
  4  6  1  0  0  0  0
  3  7  1  0  0  0  0
  7  8  1  0  0  0  0
  1  9  1  0  0  0  0
  1 10  1  0  0  0  0
  2 11  1  0  0  0  0
  2 12  1  0  0  0  0
  2 13  1  0  0  0  0
  3 14  1  0  0  0  0
  6 15  1  0  0  0  0
  7 16  1  0  0  0  0
  7 17  1  0  0  0  0
  8 18  1  0  0  0  0
  8 19  1  0  0  0  0
  8 20  1  0  0  0  0
M  END
$$$$
