C16H18N2O3
APtclcactv12211717123D 0   0.00000     0.00000
 
 39 40  0  0  0  0  0  0  0  0999 V2000
    0.0764    0.4462   -1.5191 C   0  0  0  0  0  0  0  0  0  0  0  0
    0.4984    1.2374    0.7108 C   0  0  0  0  0  0  0  0  0  0  0  0
    1.3302   -0.1314   -1.5520 C   0  0  0  0  0  0  0  0  0  0  0  0
    1.7524    0.6603    0.6789 C   0  0  0  0  0  0  0  0  0  0  0  0
   -2.4556   -0.4508    0.1527 C   0  0  0  0  0  0  0  0  0  0  0  0
   -3.9341    1.4020   -0.2407 C   0  0  0  0  0  0  0  0  0  0  0  0
   -3.5441   -1.2746    0.3630 C   0  0  0  0  0  0  0  0  0  0  0  0
   -5.0224    0.5780   -0.0303 C   0  0  0  0  0  0  0  0  0  0  0  0
   -7.1960   -0.9787    0.3675 C   0  0  0  0  0  0  0  0  0  0  0  0
    6.7112   -0.2201    1.1478 C   0  0  0  0  0  0  0  0  0  0  0  0
    6.0361   -1.4231   -0.9819 C   0  0  0  0  0  0  0  0  0  0  0  0
    3.6242   -1.3473   -1.0924 H   0  0  0  0  0  0  0  0  0  0  0  0
   -0.3424    1.1317   -0.3879 C   0  0  0  0  0  0  0  0  0  0  0  0
   -2.6482    0.8894   -0.1496 C   0  0  0  0  0  0  0  0  0  0  0  0
    2.1719   -0.0259   -0.4529 C   0  0  0  0  0  0  0  0  0  0  0  0
   -4.8298   -0.7620    0.2715 C   0  0  0  0  0  0  0  0  0  0  0  0
    4.1538    0.6475    1.2007 O   0  0  0  0  0  0  0  0  0  0  0  0
    4.4182   -0.1548    0.3262 C   0  0  0  0  0  0  0  0  0  0  0  0
   -1.5768    1.7005   -0.3562 O   0  0  0  0  0  0  0  0  0  0  0  0
   -5.9013   -1.5734    0.4776 O   0  0  0  0  0  0  0  0  0  0  0  0
    3.4444   -0.6122   -0.4856 N   0  0  0  0  0  0  0  0  0  0  0  0
    5.6851   -0.5868    0.1686 N   0  0  0  0  0  0  0  0  0  0  0  0
   -0.5767    0.3680   -2.3757 H   0  0  0  0  0  0  0  0  0  0  0  0
    0.1719    1.7712    1.5911 H   0  0  0  0  0  0  0  0  0  0  0  0
    1.6560   -0.6653   -2.4325 H   0  0  0  0  0  0  0  0  0  0  0  0
    2.4068    0.7426    1.5341 H   0  0  0  0  0  0  0  0  0  0  0  0
   -1.4545   -0.8489    0.2280 H   0  0  0  0  0  0  0  0  0  0  0  0
   -4.0841    2.4453   -0.4760 H   0  0  0  0  0  0  0  0  0  0  0  0
   -3.3942   -2.3179    0.5984 H   0  0  0  0  0  0  0  0  0  0  0  0
   -6.0235    0.9770   -0.1012 H   0  0  0  0  0  0  0  0  0  0  0  0
   -7.2909   -0.1766    1.0995 H   0  0  0  0  0  0  0  0  0  0  0  0
   -7.3251   -0.5723   -0.6356 H   0  0  0  0  0  0  0  0  0  0  0  0
   -7.9597   -1.7336    0.5548 H   0  0  0  0  0  0  0  0  0  0  0  0
    6.7462   -0.9720    1.9363 H   0  0  0  0  0  0  0  0  0  0  0  0
    7.6815   -0.1658    0.6543 H   0  0  0  0  0  0  0  0  0  0  0  0
    6.4693    0.7502    1.5815 H   0  0  0  0  0  0  0  0  0  0  0  0
    5.1351   -1.6581   -1.5486 H   0  0  0  0  0  0  0  0  0  0  0  0
    6.7374   -0.8863   -1.6208 H   0  0  0  0  0  0  0  0  0  0  0  0
    6.4969   -2.3470   -0.6325 H   0  0  0  0  0  0  0  0  0  0  0  0
 13 19  1  0  0  0  0
  1 13  1  0  0  0  0
  2 13  2  0  0  0  0
 14 19  1  0  0  0  0
  1  3  2  0  0  0  0
  2  4  1  0  0  0  0
  5 14  2  0  0  0  0
  6 14  1  0  0  0  0
  3 15  1  0  0  0  0
  5  7  1  0  0  0  0
  6  8  2  0  0  0  0
 15 21  1  0  0  0  0
  7 16  2  0  0  0  0
 18 21  1  0  0  0  0
 16 20  1  0  0  0  0
 18 22  1  0  0  0  0
 17 18  2  0  0  0  0
  9 20  1  0  0  0  0
 10 22  1  0  0  0  0
 11 22  1  0  0  0  0
  4 15  2  0  0  0  0
  8 16  1  0  0  0  0
  1 23  1  0  0  0  0
  2 24  1  0  0  0  0
  3 25  1  0  0  0  0
  4 26  1  0  0  0  0
  5 27  1  0  0  0  0
  6 28  1  0  0  0  0
  7 29  1  0  0  0  0
  8 30  1  0  0  0  0
 12 21  1  0  0  0  0
  9 31  1  0  0  0  0
  9 32  1  0  0  0  0
  9 33  1  0  0  0  0
 10 34  1  0  0  0  0
 10 35  1  0  0  0  0
 10 36  1  0  0  0  0
 11 37  1  0  0  0  0
 11 38  1  0  0  0  0
 11 39  1  0  0  0  0
M  END
$$$$
