C14H10O9
APtclcactv12091702563D 0   0.00000     0.00000
 
 33 34  0  0  0  0  0  0  0  0999 V2000
   -2.4024    0.8841    0.2924 C   0  0  0  0  0  0  0  0  0  0  0  0
    2.9235    0.0354   -1.3397 C   0  0  0  0  0  0  0  0  0  0  0  0
    2.5978    0.2433    1.0485 C   0  0  0  0  0  0  0  0  0  0  0  0
   -4.2402   -0.6485   -0.0630 C   0  0  0  0  0  0  0  0  0  0  0  0
   -1.0632   -2.8682    1.3095 H   0  0  0  0  0  0  0  0  0  0  0  0
    6.4940    1.2963    0.2631 H   0  0  0  0  0  0  0  0  0  0  0  0
   -4.1177   -3.3812    0.7751 H   0  0  0  0  0  0  0  0  0  0  0  0
    4.6842   -0.3383    2.9178 H   0  0  0  0  0  0  0  0  0  0  0  0
    5.4175   -0.8071   -2.4601 H   0  0  0  0  0  0  0  0  0  0  0  0
   -1.5360   -0.1865    0.4094 C   0  0  0  0  0  0  0  0  0  0  0  0
   -2.0162   -1.4886    0.2907 C   0  0  0  0  0  0  0  0  0  0  0  0
    2.0682    0.0881   -0.2356 C   0  0  0  0  0  0  0  0  0  0  0  0
    4.8148    0.2908    0.1214 C   0  0  0  0  0  0  0  0  0  0  0  0
   -3.7612    0.6591    0.0552 C   0  0  0  0  0  0  0  0  0  0  0  0
   -3.3695   -1.7154    0.0539 C   0  0  0  0  0  0  0  0  0  0  0  0
    4.2900    0.1368   -1.1591 C   0  0  0  0  0  0  0  0  0  0  0  0
    3.9650    0.3441    1.2232 C   0  0  0  0  0  0  0  0  0  0  0  0
    0.1505   -0.1538   -1.5422 O   0  0  0  0  0  0  0  0  0  0  0  0
   -4.2704    2.9358    0.0338 O   0  0  0  0  0  0  0  0  0  0  0  0
   -1.1625   -2.5392    0.4056 O   0  0  0  0  0  0  0  0  0  0  0  0
    6.1588    0.3898    0.2962 O   0  0  0  0  0  0  0  0  0  0  0  0
   -3.8350   -2.9881   -0.0619 O   0  0  0  0  0  0  0  0  0  0  0  0
    4.4810    0.4956    2.4725 O   0  0  0  0  0  0  0  0  0  0  0  0
    5.1229    0.0855   -2.2331 O   0  0  0  0  0  0  0  0  0  0  0  0
   -5.9979    1.5812   -0.2983 O   0  0  0  0  0  0  0  0  0  0  0  0
    0.6097   -0.0193   -0.4252 C   0  0  0  0  0  0  0  0  0  0  0  0
   -4.6880    1.7995   -0.0696 C   0  0  0  0  0  0  0  0  0  0  0  0
   -0.2137    0.0317    0.6401 O   0  0  0  0  0  0  0  0  0  0  0  0
   -6.5663    2.3599   -0.3725 H   0  0  0  0  0  0  0  0  0  0  0  0
   -2.0304    1.8935    0.3886 H   0  0  0  0  0  0  0  0  0  0  0  0
    2.5173   -0.0889   -2.3326 H   0  0  0  0  0  0  0  0  0  0  0  0
    1.9391    0.2847    1.9034 H   0  0  0  0  0  0  0  0  0  0  0  0
   -5.2897   -0.8250   -0.2466 H   0  0  0  0  0  0  0  0  0  0  0  0
 26 28  1  0  0  0  0
 10 11  1  0  0  0  0
 12 26  1  0  0  0  0
 13 16  2  0  0  0  0
 10 28  1  0  0  0  0
  1 14  1  0  0  0  0
 11 15  2  0  0  0  0
  2 16  1  0  0  0  0
  3 17  2  0  0  0  0
 14 27  1  0  0  0  0
  1 10  2  0  0  0  0
  2 12  2  0  0  0  0
  3 12  1  0  0  0  0
  4 14  2  0  0  0  0
 18 26  2  0  0  0  0
 19 27  2  0  0  0  0
 11 20  1  0  0  0  0
 13 21  1  0  0  0  0
 15 22  1  0  0  0  0
 17 23  1  0  0  0  0
 16 24  1  0  0  0  0
 25 27  1  0  0  0  0
  4 15  1  0  0  0  0
 13 17  1  0  0  0  0
  1 30  1  0  0  0  0
  2 31  1  0  0  0  0
  3 32  1  0  0  0  0
  4 33  1  0  0  0  0
  5 20  1  0  0  0  0
  6 21  1  0  0  0  0
  7 22  1  0  0  0  0
  8 23  1  0  0  0  0
  9 24  1  0  0  0  0
 25 29  1  0  0  0  0
M  END
$$$$
