C4H6O5
APtclcactv12211716383D 0   0.00000     0.00000
 
 15 14  0  0  0  0  0  0  0  0999 V2000
    2.3936    0.0625   -0.0017 C   0  0  0  0  0  0  0  0  0  0  0  0
    1.1985   -0.8555   -0.0016 C   0  0  0  0  0  0  0  0  0  0  0  0
    0.0000   -0.0772   -0.0007 O   0  0  0  0  0  0  0  0  0  0  0  0
   -1.1985   -0.8555   -0.0006 C   0  0  0  0  0  0  0  0  0  0  0  0
   -2.3936    0.0625    0.0004 C   0  0  0  0  0  0  0  0  0  0  0  0
   -2.2353    1.2603    0.0009 O   0  0  0  0  0  0  0  0  0  0  0  0
   -3.6340   -0.4506    0.0007 O   0  0  0  0  0  0  0  0  0  0  0  0
    2.2353    1.2603   -0.0011 O   0  0  0  0  0  0  0  0  0  0  0  0
    3.6339   -0.4506    0.0031 O   0  0  0  0  0  0  0  0  0  0  0  0
    1.2229   -1.4839   -0.8919 H   0  0  0  0  0  0  0  0  0  0  0  0
    1.2237   -1.4848    0.8880 H   0  0  0  0  0  0  0  0  0  0  0  0
   -1.2237   -1.4839   -0.8909 H   0  0  0  0  0  0  0  0  0  0  0  0
   -1.2229   -1.4848    0.8891 H   0  0  0  0  0  0  0  0  0  0  0  0
   -4.3689    0.1778    0.0013 H   0  0  0  0  0  0  0  0  0  0  0  0
    4.3689    0.1778    0.0028 H   0  0  0  0  0  0  0  0  0  0  0  0
  1  2  1  0  0  0  0
  2  3  1  0  0  0  0
  3  4  1  0  0  0  0
  4  5  1  0  0  0  0
  5  6  2  0  0  0  0
  5  7  1  0  0  0  0
  1  8  2  0  0  0  0
  1  9  1  0  0  0  0
  2 10  1  0  0  0  0
  2 11  1  0  0  0  0
  4 12  1  0  0  0  0
  4 13  1  0  0  0  0
  7 14  1  0  0  0  0
  9 15  1  0  0  0  0
M  END
$$$$
