C14H18O4
APtclcactv12211717033D 0   0.00000     0.00000
 
 36 36  0  0  0  0  0  0  0  0999 V2000
   -1.3886    0.1514    0.0638 C   0  0  0  0  0  0  0  0  0  0  0  0
   -0.6959   -1.1511   -0.0328 C   0  0  0  0  0  0  0  0  0  0  0  0
    0.7014   -1.2239    0.1254 C   0  0  0  0  0  0  0  0  0  0  0  0
    1.4848    0.0019    0.3892 C   0  0  0  0  0  0  0  0  0  0  0  0
    1.1938    0.7189    1.3253 O   0  0  0  0  0  0  0  0  0  0  0  0
    2.5213    0.3235   -0.4087 O   0  0  0  0  0  0  0  0  0  0  0  0
    3.2454    1.5411   -0.0902 C   0  0  0  0  0  0  0  0  0  0  0  0
    4.3887    1.2173    0.8737 C   0  0  0  0  0  0  0  0  0  0  0  0
    3.8167    2.1454   -1.3744 C   0  0  0  0  0  0  0  0  0  0  0  0
    1.3405   -2.4570    0.0324 C   0  0  0  0  0  0  0  0  0  0  0  0
    0.6036   -3.6007   -0.2139 C   0  0  0  0  0  0  0  0  0  0  0  0
   -0.7690   -3.5293   -0.3694 C   0  0  0  0  0  0  0  0  0  0  0  0
   -1.4218   -2.3140   -0.2750 C   0  0  0  0  0  0  0  0  0  0  0  0
   -0.7441    1.1760    0.1633 O   0  0  0  0  0  0  0  0  0  0  0  0
   -2.7344    0.2023    0.0360 O   0  0  0  0  0  0  0  0  0  0  0  0
   -3.3466    1.5152    0.1355 C   0  0  0  0  0  0  0  0  0  0  0  0
   -3.5272    2.1012   -1.2662 C   0  0  0  0  0  0  0  0  0  0  0  0
   -4.7112    1.3913    0.8162 C   0  0  0  0  0  0  0  0  0  0  0  0
    2.5674    2.2553    0.3772 H   0  0  0  0  0  0  0  0  0  0  0  0
    4.9322    2.1313    1.1128 H   0  0  0  0  0  0  0  0  0  0  0  0
    3.9817    0.7867    1.7886 H   0  0  0  0  0  0  0  0  0  0  0  0
    5.0666    0.5031    0.4063 H   0  0  0  0  0  0  0  0  0  0  0  0
    3.0022    2.3761   -2.0610 H   0  0  0  0  0  0  0  0  0  0  0  0
    4.3603    3.0595   -1.1353 H   0  0  0  0  0  0  0  0  0  0  0  0
    4.4947    1.4313   -1.8418 H   0  0  0  0  0  0  0  0  0  0  0  0
    2.4120   -2.5203    0.1524 H   0  0  0  0  0  0  0  0  0  0  0  0
    1.1028   -4.5557   -0.2858 H   0  0  0  0  0  0  0  0  0  0  0  0
   -1.3348   -4.4288   -0.5619 H   0  0  0  0  0  0  0  0  0  0  0  0
   -2.4937   -2.2658   -0.3975 H   0  0  0  0  0  0  0  0  0  0  0  0
   -2.7053    2.1715    0.7238 H   0  0  0  0  0  0  0  0  0  0  0  0
   -3.9868    3.0868   -1.1916 H   0  0  0  0  0  0  0  0  0  0  0  0
   -2.5550    2.1895   -1.7512 H   0  0  0  0  0  0  0  0  0  0  0  0
   -4.1684    1.4449   -1.8546 H   0  0  0  0  0  0  0  0  0  0  0  0
   -4.5825    0.9738    1.8148 H   0  0  0  0  0  0  0  0  0  0  0  0
   -5.1708    2.3768    0.8909 H   0  0  0  0  0  0  0  0  0  0  0  0
   -5.3525    0.7350    0.2278 H   0  0  0  0  0  0  0  0  0  0  0  0
  1  2  1  0  0  0  0
  2  3  1  0  0  0  0
  3  4  1  0  0  0  0
  4  5  2  0  0  0  0
  4  6  1  0  0  0  0
  6  7  1  0  0  0  0
  7  8  1  0  0  0  0
  7  9  1  0  0  0  0
  3 10  2  0  0  0  0
 10 11  1  0  0  0  0
 11 12  2  0  0  0  0
 12 13  1  0  0  0  0
  2 13  2  0  0  0  0
  1 14  2  0  0  0  0
  1 15  1  0  0  0  0
 15 16  1  0  0  0  0
 16 17  1  0  0  0  0
 16 18  1  0  0  0  0
  7 19  1  0  0  0  0
  8 20  1  0  0  0  0
  8 21  1  0  0  0  0
  8 22  1  0  0  0  0
  9 23  1  0  0  0  0
  9 24  1  0  0  0  0
  9 25  1  0  0  0  0
 10 26  1  0  0  0  0
 11 27  1  0  0  0  0
 12 28  1  0  0  0  0
 13 29  1  0  0  0  0
 16 30  1  0  0  0  0
 17 31  1  0  0  0  0
 17 32  1  0  0  0  0
 17 33  1  0  0  0  0
 18 34  1  0  0  0  0
 18 35  1  0  0  0  0
 18 36  1  0  0  0  0
M  END
$$$$
