C5H7N3O2
APtclcactv12211716433D 0   0.00000     0.00000
 
 17 17  0  0  0  0  0  0  0  0999 V2000
    0.1042    1.5864    0.0003 C   0  0  0  0  0  0  0  0  0  0  0  0
    0.5736   -1.9881    0.0004 C   0  0  0  0  0  0  0  0  0  0  0  0
    3.1825   -0.3167   -0.0002 C   0  0  0  0  0  0  0  0  0  0  0  0
   -0.4110    0.3421    0.0004 C   0  0  0  0  0  0  0  0  0  0  0  0
    1.7743    0.2200   -0.0002 C   0  0  0  0  0  0  0  0  0  0  0  0
   -2.1805   -1.1898   -0.0007 O   0  0  0  0  0  0  0  0  0  0  0  0
   -2.6944    0.8563    0.0003 O   0  5  0  0  0  0  0  0  0  0  0  0
    1.4413    1.4818   -0.0001 N   0  0  0  0  0  0  0  0  0  0  0  0
   -1.8468   -0.0184   -0.0000 N   0  3  0  0  0  0  0  0  0  0  0  0
    0.6480   -0.5250    0.0000 N   0  0  0  0  0  0  0  0  0  0  0  0
   -0.4604    2.5071   -0.0036 H   0  0  0  0  0  0  0  0  0  0  0  0
    0.5550   -2.3513   -1.0271 H   0  0  0  0  0  0  0  0  0  0  0  0
    1.4440   -2.3961    0.5143 H   0  0  0  0  0  0  0  0  0  0  0  0
   -0.3337   -2.3056    0.5144 H   0  0  0  0  0  0  0  0  0  0  0  0
    3.5220   -0.4464   -1.0278 H   0  0  0  0  0  0  0  0  0  0  0  0
    3.8390    0.3856    0.5134 H   0  0  0  0  0  0  0  0  0  0  0  0
    3.2051   -1.2776    0.5139 H   0  0  0  0  0  0  0  0  0  0  0  0
  4 10  1  0  0  0  0
  1  4  2  0  0  0  0
  4  9  1  0  0  0  0
  5 10  1  0  0  0  0
  2 10  1  0  0  0  0
  1  8  1  0  0  0  0
  6  9  2  0  0  0  0
  7  9  1  0  0  0  0
  3  5  1  0  0  0  0
  5  8  2  0  0  0  0
  1 11  1  0  0  0  0
  2 12  1  0  0  0  0
  2 13  1  0  0  0  0
  2 14  1  0  0  0  0
  3 15  1  0  0  0  0
  3 16  1  0  0  0  0
  3 17  1  0  0  0  0
M  CHG  2   7  -1   9   1
M  END
$$$$
