C2H6O4S
APtclcactv12101715353D 0   0.00000     0.00000
 
 13 12  0  0  0  0  0  0  0  0999 V2000
   -0.0000    0.4273    0.0000 S   0  0  0  0  0  0  0  0  0  0  0  0
    0.8253    1.1037   -0.9384 O   0  0  0  0  0  0  0  0  0  0  0  0
   -0.8253    1.1037    0.9384 O   0  0  0  0  0  0  0  0  0  0  0  0
   -0.9200   -0.4756   -0.8091 O   0  0  0  0  0  0  0  0  0  0  0  0
   -1.9536   -1.0925   -0.0389 C   0  0  0  0  0  0  0  0  0  0  0  0
    0.9200   -0.4756    0.8091 O   0  0  0  0  0  0  0  0  0  0  0  0
    1.9536   -1.0925    0.0389 C   0  0  0  0  0  0  0  0  0  0  0  0
   -1.5067   -1.7064    0.7432 H   0  0  0  0  0  0  0  0  0  0  0  0
   -2.5769   -0.3223    0.4155 H   0  0  0  0  0  0  0  0  0  0  0  0
   -2.5654   -1.7192   -0.6877 H   0  0  0  0  0  0  0  0  0  0  0  0
    1.5067   -1.7064   -0.7432 H   0  0  0  0  0  0  0  0  0  0  0  0
    2.5769   -0.3223   -0.4155 H   0  0  0  0  0  0  0  0  0  0  0  0
    2.5654   -1.7192    0.6877 H   0  0  0  0  0  0  0  0  0  0  0  0
  1  2  2  0  0  0  0
  1  3  2  0  0  0  0
  1  4  1  0  0  0  0
  4  5  1  0  0  0  0
  1  6  1  0  0  0  0
  6  7  1  0  0  0  0
  5  8  1  0  0  0  0
  5  9  1  0  0  0  0
  5 10  1  0  0  0  0
  7 11  1  0  0  0  0
  7 12  1  0  0  0  0
  7 13  1  0  0  0  0
M  END
$$$$
