C5H8O4
APtclcactv12211716433D 0   0.00000     0.00000
 
 17 16  0  0  0  0  0  0  0  0999 V2000
   -0.0000   -1.4216   -1.2492 C   0  0  0  0  0  0  0  0  0  0  0  0
   -0.0000   -0.5383   -0.0000 C   0  0  0  0  0  0  0  0  0  0  0  0
    1.2305    0.3318    0.0000 C   0  0  0  0  0  0  0  0  0  0  0  0
    1.1196    1.5350   -0.0000 O   0  0  0  0  0  0  0  0  0  0  0  0
    2.4496   -0.2298    0.0000 O   0  0  0  0  0  0  0  0  0  0  0  0
   -1.2305    0.3318    0.0000 C   0  0  0  0  0  0  0  0  0  0  0  0
   -1.1196    1.5350    0.0000 O   0  0  0  0  0  0  0  0  0  0  0  0
   -2.4496   -0.2298    0.0000 O   0  0  0  0  0  0  0  0  0  0  0  0
    0.0000   -1.4216    1.2492 C   0  0  0  0  0  0  0  0  0  0  0  0
    0.8900   -2.0509   -1.2492 H   0  0  0  0  0  0  0  0  0  0  0  0
   -0.8900   -2.0509   -1.2492 H   0  0  0  0  0  0  0  0  0  0  0  0
   -0.0000   -0.7923   -2.1392 H   0  0  0  0  0  0  0  0  0  0  0  0
    3.2088    0.3690    0.0000 H   0  0  0  0  0  0  0  0  0  0  0  0
   -3.2088    0.3690    0.0000 H   0  0  0  0  0  0  0  0  0  0  0  0
    0.8900   -2.0509    1.2492 H   0  0  0  0  0  0  0  0  0  0  0  0
    0.0000   -0.7923    2.1392 H   0  0  0  0  0  0  0  0  0  0  0  0
   -0.8900   -2.0509    1.2492 H   0  0  0  0  0  0  0  0  0  0  0  0
  1  2  1  0  0  0  0
  2  3  1  0  0  0  0
  3  4  2  0  0  0  0
  3  5  1  0  0  0  0
  2  6  1  0  0  0  0
  6  7  2  0  0  0  0
  6  8  1  0  0  0  0
  2  9  1  0  0  0  0
  1 10  1  0  0  0  0
  1 11  1  0  0  0  0
  1 12  1  0  0  0  0
  5 13  1  0  0  0  0
  8 14  1  0  0  0  0
  9 15  1  0  0  0  0
  9 16  1  0  0  0  0
  9 17  1  0  0  0  0
M  END
$$$$
