C10H10O4
APtclcactv12211717223D 0   0.00000     0.00000
 
 24 24  0  0  0  0  0  0  0  0999 V2000
   -1.2195    2.0305    0.1477 C   0  0  0  0  0  0  0  0  0  0  0  0
    1.5345    1.7514   -0.1404 C   0  0  0  0  0  0  0  0  0  0  0  0
   -0.4112    3.1461    0.0339 C   0  0  0  0  0  0  0  0  0  0  0  0
    0.9580    3.0073   -0.1096 C   0  0  0  0  0  0  0  0  0  0  0  0
   -3.3510   -1.8125   -0.4293 C   0  0  0  0  0  0  0  0  0  0  0  0
    3.2199   -2.2105   -0.1056 C   0  0  0  0  0  0  0  0  0  0  0  0
   -0.6566    0.7573    0.1188 C   0  0  0  0  0  0  0  0  0  0  0  0
    0.7365    0.6161   -0.0267 C   0  0  0  0  0  0  0  0  0  0  0  0
   -1.2925   -1.2632    1.1036 O   0  0  0  0  0  0  0  0  0  0  0  0
    0.6422   -1.7174   -0.0725 O   0  0  0  0  0  0  0  0  0  0  0  0
   -1.5167   -0.4391    0.2401 C   0  0  0  0  0  0  0  0  0  0  0  0
    1.3483   -0.7294   -0.0591 C   0  0  0  0  0  0  0  0  0  0  0  0
   -2.5491   -0.6151   -0.6071 O   0  0  0  0  0  0  0  0  0  0  0  0
    2.6890   -0.8595   -0.0738 O   0  0  0  0  0  0  0  0  0  0  0  0
   -3.7882   -1.8120    0.5692 H   0  0  0  0  0  0  0  0  0  0  0  0
   -4.1464   -1.8310   -1.1743 H   0  0  0  0  0  0  0  0  0  0  0  0
   -2.7202   -2.6933   -0.5493 H   0  0  0  0  0  0  0  0  0  0  0  0
    2.8825   -2.7543    0.7768 H   0  0  0  0  0  0  0  0  0  0  0  0
    2.8665   -2.7188   -1.0027 H   0  0  0  0  0  0  0  0  0  0  0  0
    4.3092   -2.1728   -0.1146 H   0  0  0  0  0  0  0  0  0  0  0  0
   -2.2869    2.1465    0.2635 H   0  0  0  0  0  0  0  0  0  0  0  0
    2.6040    1.6508   -0.2523 H   0  0  0  0  0  0  0  0  0  0  0  0
   -0.8512    4.1321    0.0567 H   0  0  0  0  0  0  0  0  0  0  0  0
    1.5801    3.8857   -0.1977 H   0  0  0  0  0  0  0  0  0  0  0  0
  7  8  2  0  0  0  0
  7 11  1  0  0  0  0
  1  7  1  0  0  0  0
  8 12  1  0  0  0  0
  2  8  1  0  0  0  0
 11 13  1  0  0  0  0
  9 11  2  0  0  0  0
  1  3  2  0  0  0  0
 12 14  1  0  0  0  0
 10 12  2  0  0  0  0
  2  4  2  0  0  0  0
  5 13  1  0  0  0  0
  6 14  1  0  0  0  0
  5 15  1  0  0  0  0
  5 16  1  0  0  0  0
  5 17  1  0  0  0  0
  6 18  1  0  0  0  0
  6 19  1  0  0  0  0
  6 20  1  0  0  0  0
  3  4  1  0  0  0  0
  1 21  1  0  0  0  0
  2 22  1  0  0  0  0
  3 23  1  0  0  0  0
  4 24  1  0  0  0  0
M  END
$$$$
