C11H19N3O
APtclcactv12111704483D 0   0.00000     0.00000
 
 34 34  0  0  0  0  0  0  0  0999 V2000
    2.0856    0.1203   -0.8886 C   0  0  0  0  0  0  0  0  0  0  0  0
    2.9084   -0.0733    0.3867 C   0  0  0  0  0  0  0  0  0  0  0  0
    4.3987   -0.0348    0.0429 C   0  0  0  0  0  0  0  0  0  0  0  0
   -4.0212   -1.3695    0.5782 C   0  0  0  0  0  0  0  0  0  0  0  0
   -4.1195    1.1646    0.4914 C   0  0  0  0  0  0  0  0  0  0  0  0
    0.6336    2.5585   -0.4113 C   0  0  0  0  0  0  0  0  0  0  0  0
    5.2215   -0.2283    1.3182 C   0  0  0  0  0  0  0  0  0  0  0  0
   -1.8911    1.9786    0.1406 H   0  0  0  0  0  0  0  0  0  0  0  0
    0.5236   -2.2040   -0.6605 O   0  0  0  0  0  0  0  0  0  0  0  0
   -2.0250   -0.0395    0.0552 C   0  0  0  0  0  0  0  0  0  0  0  0
   -0.0700   -1.1551   -0.4620 C   0  0  0  0  0  0  0  0  0  0  0  0
   -0.0646    1.2258   -0.3258 C   0  0  0  0  0  0  0  0  0  0  0  0
    0.6176    0.0823   -0.5500 C   0  0  0  0  0  0  0  0  0  0  0  0
   -3.3575   -0.0805    0.3677 N   0  0  0  0  0  0  0  0  0  0  0  0
   -1.3938    1.1617   -0.0214 N   0  0  0  0  0  0  0  0  0  0  0  0
   -1.3758   -1.1655   -0.1599 N   0  0  0  0  0  0  0  0  0  0  0  0
   -3.9527   -1.6458    1.6304 H   0  0  0  0  0  0  0  0  0  0  0  0
   -5.0697   -1.2894    0.2912 H   0  0  0  0  0  0  0  0  0  0  0  0
   -3.5351   -2.1321   -0.0302 H   0  0  0  0  0  0  0  0  0  0  0  0
   -3.4450    2.0149    0.3905 H   0  0  0  0  0  0  0  0  0  0  0  0
   -4.8767    1.2066   -0.2915 H   0  0  0  0  0  0  0  0  0  0  0  0
   -4.6037    1.1988    1.4674 H   0  0  0  0  0  0  0  0  0  0  0  0
    2.3304    1.0835   -1.3363 H   0  0  0  0  0  0  0  0  0  0  0  0
    2.3164   -0.6776   -1.5945 H   0  0  0  0  0  0  0  0  0  0  0  0
   -0.0787    3.3561   -0.2005 H   0  0  0  0  0  0  0  0  0  0  0  0
    1.4430    2.5920    0.3180 H   0  0  0  0  0  0  0  0  0  0  0  0
    1.0417    2.6913   -1.4133 H   0  0  0  0  0  0  0  0  0  0  0  0
    2.6776    0.7246    1.0926 H   0  0  0  0  0  0  0  0  0  0  0  0
    2.6635   -1.0365    0.8344 H   0  0  0  0  0  0  0  0  0  0  0  0
    4.6295   -0.8327   -0.6630 H   0  0  0  0  0  0  0  0  0  0  0  0
    4.6436    0.9284   -0.4047 H   0  0  0  0  0  0  0  0  0  0  0  0
    4.9907    0.5695    2.0241 H   0  0  0  0  0  0  0  0  0  0  0  0
    4.9767   -1.1916    1.7659 H   0  0  0  0  0  0  0  0  0  0  0  0
    6.2833   -0.2009    1.0733 H   0  0  0  0  0  0  0  0  0  0  0  0
 10 16  2  0  0  0  0
 10 15  1  0  0  0  0
 10 14  1  0  0  0  0
 11 16  1  0  0  0  0
 12 15  1  0  0  0  0
  4 14  1  0  0  0  0
  5 14  1  0  0  0  0
  9 11  2  0  0  0  0
 11 13  1  0  0  0  0
  6 12  1  0  0  0  0
 12 13  2  0  0  0  0
  1 13  1  0  0  0  0
  1  2  1  0  0  0  0
  2  3  1  0  0  0  0
  3  7  1  0  0  0  0
  8 15  1  0  0  0  0
  4 17  1  0  0  0  0
  4 18  1  0  0  0  0
  4 19  1  0  0  0  0
  5 20  1  0  0  0  0
  5 21  1  0  0  0  0
  5 22  1  0  0  0  0
  1 23  1  0  0  0  0
  1 24  1  0  0  0  0
  6 25  1  0  0  0  0
  6 26  1  0  0  0  0
  6 27  1  0  0  0  0
  2 28  1  0  0  0  0
  2 29  1  0  0  0  0
  3 30  1  0  0  0  0
  3 31  1  0  0  0  0
  7 32  1  0  0  0  0
  7 33  1  0  0  0  0
  7 34  1  0  0  0  0
M  END
$$$$
