C11H21N5S
APtclcactv12111704493D 0   0.00000     0.00000
 
 38 38  0  0  0  0  0  0  0  0999 V2000
    4.0953    1.5176   -0.0126 C   0  0  0  0  0  0  0  0  0  0  0  0
   -3.2522   -0.5082    1.3962 C   0  0  0  0  0  0  0  0  0  0  0  0
    3.1831   -2.8132   -0.0436 C   0  0  0  0  0  0  0  0  0  0  0  0
   -5.3494   -0.4669   -0.6491 C   0  0  0  0  0  0  0  0  0  0  0  0
   -4.6457    1.7748    0.2007 C   0  0  0  0  0  0  0  0  0  0  0  0
    5.0137    2.7413   -0.0025 C   0  0  0  0  0  0  0  0  0  0  0  0
   -2.0942    1.8815   -0.0172 H   0  0  0  0  0  0  0  0  0  0  0  0
    2.4862    2.9028   -0.0083 H   0  0  0  0  0  0  0  0  0  0  0  0
   -0.5665    0.5212   -0.0317 C   0  0  0  0  0  0  0  0  0  0  0  0
    1.6813    1.0223   -0.0221 C   0  0  0  0  0  0  0  0  0  0  0  0
    0.9914   -1.1747   -0.0386 C   0  0  0  0  0  0  0  0  0  0  0  0
   -2.9623   -0.0561   -0.0364 C   0  0  0  0  0  0  0  0  0  0  0  0
   -4.2225    0.5680   -0.6392 C   0  0  0  0  0  0  0  0  0  0  0  0
    0.4126    1.4204   -0.0230 N   0  0  0  0  0  0  0  0  0  0  0  0
   -0.2775   -0.7763   -0.0394 N   0  0  0  0  0  0  0  0  0  0  0  0
    1.9709   -0.2747   -0.0299 N   0  0  0  0  0  0  0  0  0  0  0  0
   -1.8832    0.9347   -0.0269 N   0  0  0  0  0  0  0  0  0  0  0  0
    2.6975    1.9562   -0.0136 N   0  0  0  0  0  0  0  0  0  0  0  0
    1.3749   -2.8944   -0.0494 S   0  0  0  0  0  0  0  0  0  0  0  0
   -2.6608   -0.9159   -0.6348 H   0  0  0  0  0  0  0  0  0  0  0  0
   -4.0159    0.8901   -1.6598 H   0  0  0  0  0  0  0  0  0  0  0  0
   -4.0550   -1.2455    1.3891 H   0  0  0  0  0  0  0  0  0  0  0  0
   -2.3544   -0.9529    1.8256 H   0  0  0  0  0  0  0  0  0  0  0  0
   -3.5537    0.3515    1.9945 H   0  0  0  0  0  0  0  0  0  0  0  0
    4.2905    0.9242   -0.9058 H   0  0  0  0  0  0  0  0  0  0  0  0
    4.2858    0.9131    0.8741 H   0  0  0  0  0  0  0  0  0  0  0  0
    3.5256   -2.2775   -0.9289 H   0  0  0  0  0  0  0  0  0  0  0  0
    3.5204   -2.2898    0.8510 H   0  0  0  0  0  0  0  0  0  0  0  0
    3.5922   -3.8235   -0.0495 H   0  0  0  0  0  0  0  0  0  0  0  0
   -5.5559   -0.7889    0.3715 H   0  0  0  0  0  0  0  0  0  0  0  0
   -6.2472   -0.0222   -1.0786 H   0  0  0  0  0  0  0  0  0  0  0  0
   -5.0479   -1.3266   -1.2475 H   0  0  0  0  0  0  0  0  0  0  0  0
   -4.8522    1.4527    1.2213 H   0  0  0  0  0  0  0  0  0  0  0  0
   -3.8429    2.5120    0.2078 H   0  0  0  0  0  0  0  0  0  0  0  0
   -5.5435    2.2194   -0.2287 H   0  0  0  0  0  0  0  0  0  0  0  0
    6.0537    2.4150   -0.0018 H   0  0  0  0  0  0  0  0  0  0  0  0
    4.8232    3.3459   -0.8892 H   0  0  0  0  0  0  0  0  0  0  0  0
    4.8184    3.3348    0.8907 H   0  0  0  0  0  0  0  0  0  0  0  0
  9 14  2  0  0  0  0
  9 15  1  0  0  0  0
  9 17  1  0  0  0  0
 10 14  1  0  0  0  0
 11 15  2  0  0  0  0
 12 17  1  0  0  0  0
 10 16  2  0  0  0  0
 10 18  1  0  0  0  0
 11 19  1  0  0  0  0
 12 13  1  0  0  0  0
  2 12  1  0  0  0  0
  1 18  1  0  0  0  0
  3 19  1  0  0  0  0
  4 13  1  0  0  0  0
  5 13  1  0  0  0  0
  1  6  1  0  0  0  0
 11 16  1  0  0  0  0
  7 17  1  0  0  0  0
 12 20  1  0  0  0  0
  8 18  1  0  0  0  0
 13 21  1  0  0  0  0
  2 22  1  0  0  0  0
  2 23  1  0  0  0  0
  2 24  1  0  0  0  0
  1 25  1  0  0  0  0
  1 26  1  0  0  0  0
  3 27  1  0  0  0  0
  3 28  1  0  0  0  0
  3 29  1  0  0  0  0
  4 30  1  0  0  0  0
  4 31  1  0  0  0  0
  4 32  1  0  0  0  0
  5 33  1  0  0  0  0
  5 34  1  0  0  0  0
  5 35  1  0  0  0  0
  6 36  1  0  0  0  0
  6 37  1  0  0  0  0
  6 38  1  0  0  0  0
M  END
$$$$
