C5H8O3
APtclcactv12211716433D 0   0.00000     0.00000
 
 16 15  0  0  0  0  0  0  0  0999 V2000
    1.6676    1.1916   -0.9391 C   0  0  0  0  0  0  0  0  0  0  0  0
    1.2583    0.3838    0.2942 C   0  0  0  0  0  0  0  0  0  0  0  0
    0.0271   -0.4258   -0.0215 C   0  0  0  0  0  0  0  0  0  0  0  0
   -1.3240    0.1901    0.1102 C   0  0  0  0  0  0  0  0  0  0  0  0
   -1.4323    1.3427    0.4713 O   0  0  0  0  0  0  0  0  0  0  0  0
   -2.4236   -0.5329   -0.1718 O   0  0  0  0  0  0  0  0  0  0  0  0
    0.1350   -1.5737   -0.3812 O   0  0  0  0  0  0  0  0  0  0  0  0
    2.3990   -0.5559    0.6899 C   0  0  0  0  0  0  0  0  0  0  0  0
    2.5581    1.7772   -0.7108 H   0  0  0  0  0  0  0  0  0  0  0  0
    1.8812    0.5120   -1.7641 H   0  0  0  0  0  0  0  0  0  0  0  0
    0.8549    1.8611   -1.2210 H   0  0  0  0  0  0  0  0  0  0  0  0
    1.0446    1.0634    1.1191 H   0  0  0  0  0  0  0  0  0  0  0  0
   -3.2776   -0.0904   -0.0716 H   0  0  0  0  0  0  0  0  0  0  0  0
    3.2895    0.0297    0.9183 H   0  0  0  0  0  0  0  0  0  0  0  0
    2.1074   -1.1314    1.5685 H   0  0  0  0  0  0  0  0  0  0  0  0
    2.6127   -1.2355   -0.1350 H   0  0  0  0  0  0  0  0  0  0  0  0
  1  2  1  0  0  0  0
  2  3  1  0  0  0  0
  3  4  1  0  0  0  0
  4  5  2  0  0  0  0
  4  6  1  0  0  0  0
  3  7  2  0  0  0  0
  2  8  1  0  0  0  0
  1  9  1  0  0  0  0
  1 10  1  0  0  0  0
  1 11  1  0  0  0  0
  2 12  1  0  0  0  0
  6 13  1  0  0  0  0
  8 14  1  0  0  0  0
  8 15  1  0  0  0  0
  8 16  1  0  0  0  0
M  END
$$$$
