C10H6Cl4O4
APtclcactv12151716543D 0   0.00000     0.00000
 
 24 24  0  0  0  0  0  0  0  0999 V2000
   -1.5593   -2.7128   -0.1073 Cl  0  0  0  0  0  0  0  0  0  0  0  0
   -0.6909   -1.2096   -0.1078 C   0  0  0  0  0  0  0  0  0  0  0  0
    0.6900   -1.2101   -0.1093 C   0  0  0  0  0  0  0  0  0  0  0  0
    1.3890   -0.0003   -0.1097 C   0  0  0  0  0  0  0  0  0  0  0  0
    0.6908    1.2100   -0.1090 C   0  0  0  0  0  0  0  0  0  0  0  0
   -0.6901    1.2105   -0.1084 C   0  0  0  0  0  0  0  0  0  0  0  0
   -1.3891    0.0006   -0.1125 C   0  0  0  0  0  0  0  0  0  0  0  0
   -2.8671    0.0011   -0.1119 C   0  0  0  0  0  0  0  0  0  0  0  0
   -3.4748    0.0051   -1.1635 O   0  0  0  0  0  0  0  0  0  0  0  0
   -3.5401   -0.0029    1.0550 O   0  0  0  0  0  0  0  0  0  0  0  0
   -4.9901   -0.0022    0.9796 C   0  0  0  0  0  0  0  0  0  0  0  0
   -1.5576    2.7142   -0.1070 Cl  0  0  0  0  0  0  0  0  0  0  0  0
    1.5593    2.7132   -0.1083 Cl  0  0  0  0  0  0  0  0  0  0  0  0
    2.8670   -0.0007   -0.1103 C   0  0  0  0  0  0  0  0  0  0  0  0
    3.4738   -0.0010   -1.1624 O   0  0  0  0  0  0  0  0  0  0  0  0
    3.5410   -0.0009    1.0560 O   0  0  0  0  0  0  0  0  0  0  0  0
    4.9910   -0.0013    0.9794 C   0  0  0  0  0  0  0  0  0  0  0  0
    1.5575   -2.7138   -0.1101 Cl  0  0  0  0  0  0  0  0  0  0  0  0
   -5.3260    0.8898    0.4508 H   0  0  0  0  0  0  0  0  0  0  0  0
   -5.3266   -0.8901    0.4444 H   0  0  0  0  0  0  0  0  0  0  0  0
   -5.4063   -0.0057    1.9870 H   0  0  0  0  0  0  0  0  0  0  0  0
    5.3264   -0.8915    0.4472 H   0  0  0  0  0  0  0  0  0  0  0  0
    5.3270    0.8885    0.4471 H   0  0  0  0  0  0  0  0  0  0  0  0
    5.4080   -0.0014    1.9865 H   0  0  0  0  0  0  0  0  0  0  0  0
  1  2  1  0  0  0  0
  2  3  2  0  0  0  0
  3  4  1  0  0  0  0
  4  5  2  0  0  0  0
  5  6  1  0  0  0  0
  6  7  2  0  0  0  0
  2  7  1  0  0  0  0
  7  8  1  0  0  0  0
  8  9  2  0  0  0  0
  8 10  1  0  0  0  0
 10 11  1  0  0  0  0
  6 12  1  0  0  0  0
  5 13  1  0  0  0  0
  4 14  1  0  0  0  0
 14 15  2  0  0  0  0
 14 16  1  0  0  0  0
 16 17  1  0  0  0  0
  3 18  1  0  0  0  0
 11 19  1  0  0  0  0
 11 20  1  0  0  0  0
 11 21  1  0  0  0  0
 17 22  1  0  0  0  0
 17 23  1  0  0  0  0
 17 24  1  0  0  0  0
M  END
$$$$
