C12H14N2O6
APtclcactv12111704593D 0   0.00000     0.00000
 
 34 34  0  0  0  0  0  0  0  0999 V2000
    1.5450   -1.2953    0.1318 C   0  0  0  0  0  0  0  0  0  0  0  0
    1.3277    1.0797   -0.1002 C   0  0  0  0  0  0  0  0  0  0  0  0
   -0.4536    3.1687    1.1582 C   0  0  0  0  0  0  0  0  0  0  0  0
   -0.7582    2.9005   -1.3071 C   0  0  0  0  0  0  0  0  0  0  0  0
   -4.2044   -0.6766   -0.5196 C   0  0  0  0  0  0  0  0  0  0  0  0
   -1.4050    4.3658    1.2108 C   0  0  0  0  0  0  0  0  0  0  0  0
   -0.6159   -0.2692    0.2862 C   0  0  0  0  0  0  0  0  0  0  0  0
   -0.0382    0.9749    0.0795 C   0  0  0  0  0  0  0  0  0  0  0  0
    0.1800   -1.4054    0.3120 C   0  0  0  0  0  0  0  0  0  0  0  0
    2.1185   -0.0539   -0.0741 C   0  0  0  0  0  0  0  0  0  0  0  0
   -1.6371   -2.8311    0.6903 O   0  0  0  0  0  0  0  0  0  0  0  0
    4.0878    1.1542   -0.4478 O   0  0  0  0  0  0  0  0  0  0  0  0
   -2.1800   -0.6087   -1.7234 O   0  0  0  0  0  0  0  0  0  0  0  0
   -2.7073   -0.5510   -0.6378 C   0  0  0  0  0  0  0  0  0  0  0  0
   -1.9594   -0.3749    0.4633 O   0  0  0  0  0  0  0  0  0  0  0  0
   -0.8996    2.2111    0.0514 C   0  0  0  0  0  0  0  0  0  0  0  0
    0.2659   -3.7317    0.5543 O   0  5  0  0  0  0  0  0  0  0  0  0
    4.2794   -0.9368   -0.2432 O   0  5  0  0  0  0  0  0  0  0  0  0
   -0.4333   -2.7346    0.5318 N   0  3  0  0  0  0  0  0  0  0  0  0
    3.5816    0.0613   -0.2664 N   0  3  0  0  0  0  0  0  0  0  0  0
    2.1655   -2.1790    0.1562 H   0  0  0  0  0  0  0  0  0  0  0  0
    1.7779    2.0480   -0.2615 H   0  0  0  0  0  0  0  0  0  0  0  0
   -1.9412    1.9318    0.2105 H   0  0  0  0  0  0  0  0  0  0  0  0
    0.5581    3.5174    0.9510 H   0  0  0  0  0  0  0  0  0  0  0  0
   -0.4698    2.6493    2.1164 H   0  0  0  0  0  0  0  0  0  0  0  0
   -1.0759    2.2183   -2.0956 H   0  0  0  0  0  0  0  0  0  0  0  0
   -1.3813    3.7946   -1.3274 H   0  0  0  0  0  0  0  0  0  0  0  0
    0.2834    3.1797   -1.4661 H   0  0  0  0  0  0  0  0  0  0  0  0
   -4.4938   -0.6007    0.5285 H   0  0  0  0  0  0  0  0  0  0  0  0
   -4.6819    0.1222   -1.0871 H   0  0  0  0  0  0  0  0  0  0  0  0
   -4.5204   -1.6420   -0.9148 H   0  0  0  0  0  0  0  0  0  0  0  0
   -1.3888    4.8852    0.2526 H   0  0  0  0  0  0  0  0  0  0  0  0
   -2.4167    4.0170    1.4180 H   0  0  0  0  0  0  0  0  0  0  0  0
   -1.0873    5.0480    1.9993 H   0  0  0  0  0  0  0  0  0  0  0  0
  7 15  1  0  0  0  0
 14 15  1  0  0  0  0
 17 19  1  0  0  0  0
 11 19  2  0  0  0  0
 18 20  1  0  0  0  0
 12 20  2  0  0  0  0
 13 14  2  0  0  0  0
  9 19  1  0  0  0  0
 10 20  1  0  0  0  0
  7  8  2  0  0  0  0
  7  9  1  0  0  0  0
  2  8  1  0  0  0  0
  8 16  1  0  0  0  0
  1  9  2  0  0  0  0
  1 10  1  0  0  0  0
  2 10  2  0  0  0  0
  3 16  1  0  0  0  0
  4 16  1  0  0  0  0
  5 14  1  0  0  0  0
  3  6  1  0  0  0  0
  1 21  1  0  0  0  0
  2 22  1  0  0  0  0
 16 23  1  0  0  0  0
  3 24  1  0  0  0  0
  3 25  1  0  0  0  0
  4 26  1  0  0  0  0
  4 27  1  0  0  0  0
  4 28  1  0  0  0  0
  5 29  1  0  0  0  0
  5 30  1  0  0  0  0
  5 31  1  0  0  0  0
  6 32  1  0  0  0  0
  6 33  1  0  0  0  0
  6 34  1  0  0  0  0
M  CHG  4  17  -1  18  -1  19   1  20   1
M  END
$$$$
