C8H9O3PS
APtclcactv12151716313D 0   0.00000     0.00000
 
 22 23  0  0  0  0  0  0  0  0999 V2000
    2.0463    1.6369   -0.0390 C   0  0  0  0  0  0  0  0  0  0  0  0
    2.8976   -0.9727    0.0616 C   0  0  0  0  0  0  0  0  0  0  0  0
    3.3802    1.3486   -0.2179 C   0  0  0  0  0  0  0  0  0  0  0  0
    3.8095    0.0350   -0.1631 C   0  0  0  0  0  0  0  0  0  0  0  0
   -3.5586    1.2664    0.4006 C   0  0  0  0  0  0  0  0  0  0  0  0
    0.6429   -1.8815    0.4443 C   0  0  0  0  0  0  0  0  0  0  0  0
   -2.6456    0.3036    0.9311 O   0  0  0  0  0  0  0  0  0  0  0  0
    1.1171    0.6182    0.1963 C   0  0  0  0  0  0  0  0  0  0  0  0
    1.5445   -0.6911    0.2347 C   0  0  0  0  0  0  0  0  0  0  0  0
   -0.1668    1.0303    0.3751 O   0  0  0  0  0  0  0  0  0  0  0  0
   -0.6622   -1.4581    0.8592 O   0  0  0  0  0  0  0  0  0  0  0  0
   -1.6073   -0.4024   -1.6289 S   0  0  0  0  0  0  0  0  0  0  0  0
   -1.2830   -0.1175    0.1840 P   0  0  0  0  0  0  0  0  0  0  0  0
    0.5603   -2.4386   -0.4889 H   0  0  0  0  0  0  0  0  0  0  0  0
    1.0720   -2.5269    1.2108 H   0  0  0  0  0  0  0  0  0  0  0  0
    1.7134    2.6636   -0.0763 H   0  0  0  0  0  0  0  0  0  0  0  0
    3.2370   -1.9971    0.1038 H   0  0  0  0  0  0  0  0  0  0  0  0
    4.0878    2.1438   -0.4003 H   0  0  0  0  0  0  0  0  0  0  0  0
    4.8553   -0.1997   -0.2956 H   0  0  0  0  0  0  0  0  0  0  0  0
   -3.9203    0.9276   -0.5703 H   0  0  0  0  0  0  0  0  0  0  0  0
   -4.4014    1.3820    1.0821 H   0  0  0  0  0  0  0  0  0  0  0  0
   -3.0506    2.2238    0.2852 H   0  0  0  0  0  0  0  0  0  0  0  0
 12 13  2  0  0  0  0
 10 13  1  0  0  0  0
 11 13  1  0  0  0  0
  7 13  1  0  0  0  0
  8 10  1  0  0  0  0
  6 11  1  0  0  0  0
  5  7  1  0  0  0  0
  8  9  2  0  0  0  0
  1  8  1  0  0  0  0
  6  9  1  0  0  0  0
  2  9  1  0  0  0  0
  1  3  2  0  0  0  0
  2  4  2  0  0  0  0
  3  4  1  0  0  0  0
  6 14  1  0  0  0  0
  6 15  1  0  0  0  0
  1 16  1  0  0  0  0
  2 17  1  0  0  0  0
  3 18  1  0  0  0  0
  4 19  1  0  0  0  0
  5 20  1  0  0  0  0
  5 21  1  0  0  0  0
  5 22  1  0  0  0  0
M  END
$$$$
