C14H8N2Na2O6
APtclcactv12091702563D 0   0.00000     0.00000
 
 32 31  0  0  0  0  0  0  0  0999 V2000
    4.9183    0.2156   -0.8614 H   0  0  0  0  0  0  0  0  0  0  0  0
    2.3397   -2.3820    1.3532 H   0  0  0  0  0  0  0  0  0  0  0  0
    4.0599   -4.1321    1.3356 H   0  0  0  0  0  0  0  0  0  0  0  0
    1.6568    2.1603   -0.2459 H   0  0  0  0  0  0  0  0  0  0  0  0
   -1.0053   -0.5646    1.7755 H   0  0  0  0  0  0  0  0  0  0  0  0
   -2.8132    1.0425    1.6713 H   0  0  0  0  0  0  0  0  0  0  0  0
    4.7361   -0.7338   -0.3799 C   0  0  0  0  0  0  0  0  0  0  0  0
    3.2860   -2.2006    0.8653 C   0  0  0  0  0  0  0  0  0  0  0  0
    4.2519   -3.1840    0.8553 C   0  0  0  0  0  0  0  0  0  0  0  0
    2.7070    0.8692   -0.1643 H   0  0  0  0  0  0  0  0  0  0  0  0
    7.0236   -3.8931    0.9760 H   0  0  0  0  0  0  0  0  0  0  0  0
    3.5242   -0.9733    0.2485 C   0  0  0  0  0  0  0  0  0  0  0  0
    5.7193   -1.7265   -0.3936 C   0  0  0  0  0  0  0  0  0  0  0  0
    5.4707   -2.9593    0.2300 C   0  0  0  0  0  0  0  0  0  0  0  0
  -12.0450   -0.9060    0.4143 Na  0  3  0  0  0  0  0  0  0  0  0  0
   -2.5611    3.3656    0.6042 O   0  0  0  0  0  0  0  0  0  0  0  0
    7.8677   -2.3524   -1.0692 O   0  0  0  0  0  0  0  0  0  0  0  0
   -1.0036    5.0073   -0.6063 O   0  0  0  0  0  0  0  0  0  0  0  0
    7.0090   -1.4811   -1.0590 C   0  0  0  0  0  0  0  0  0  0  0  0
   -0.1000    4.1839   -0.5460 C   0  0  0  0  0  0  0  0  0  0  0  0
    7.2223   -0.4057   -1.6019 O   0  5  0  0  0  0  0  0  0  0  0  0
    0.9993    4.4461   -1.0159 O   0  5  0  0  0  0  0  0  0  0  0  0
    6.4191   -3.9282    0.2220 O   0  0  0  0  0  0  0  0  0  0  0  0
  -20.2315   -3.3129   -1.0652 Na  0  3  0  0  0  0  0  0  0  0  0  0
    0.4369    0.6982    0.7771 C   0  0  0  0  0  0  0  0  0  0  0  0
   -0.3348    2.8818    0.0901 C   0  0  0  0  0  0  0  0  0  0  0  0
   -1.6486    2.5553    0.6556 C   0  0  0  0  0  0  0  0  0  0  0  0
    0.6823    1.9403    0.1643 C   0  0  0  0  0  0  0  0  0  0  0  0
   -0.8372    0.3969    1.3132 C   0  0  0  0  0  0  0  0  0  0  0  0
   -1.8484    1.2933    1.2557 C   0  0  0  0  0  0  0  0  0  0  0  0
    2.5422    0.0147    0.2642 N   0  0  0  0  0  0  0  0  0  0  0  0
    1.4138   -0.2067    0.8487 N   0  0  0  0  0  0  0  0  0  0  0  0
 14 23  1  0  0  0  0
 11 23  1  0  0  0  0
 16 27  2  0  0  0  0
 19 21  1  0  0  0  0
 17 19  2  0  0  0  0
 20 22  1  0  0  0  0
 18 20  2  0  0  0  0
 31 32  1  0  0  0  0
 12 31  1  0  0  0  0
 10 31  1  0  0  0  0
 25 32  2  0  0  0  0
  7 12  2  0  0  0  0
  8 12  1  0  0  0  0
  7 13  1  0  0  0  0
  1  7  1  0  0  0  0
 13 14  2  0  0  0  0
 13 19  1  0  0  0  0
 25 28  1  0  0  0  0
 25 29  1  0  0  0  0
  8  9  2  0  0  0  0
  2  8  1  0  0  0  0
  9 14  1  0  0  0  0
  3  9  1  0  0  0  0
 26 28  2  0  0  0  0
  4 28  1  0  0  0  0
 26 27  1  0  0  0  0
 20 26  1  0  0  0  0
 29 30  2  0  0  0  0
  5 29  1  0  0  0  0
 27 30  1  0  0  0  0
  6 30  1  0  0  0  0
M  CHG  4  15   1  21  -1  22  -1  24   1
M  END
$$$$
