C12H10O4P
APtclcactv12111704573D 0   0.00000     0.00000
 
 27 28  0  0  0  0  0  0  0  0999 V2000
    0.0000    0.1382   -0.2920 P   0  0  0  0  0  0  0  0  0  0  0  0
   -0.0000   -1.1276    0.5939 O   0  0  0  0  0  0  0  0  0  0  0  0
    1.3146    0.1426   -1.2215 O   0  0  0  0  0  0  0  0  0  0  0  0
    2.4799    0.0310   -0.5313 C   0  0  0  0  0  0  0  0  0  0  0  0
    3.0153   -1.2218   -0.2697 C   0  0  0  0  0  0  0  0  0  0  0  0
    4.2000   -1.3326    0.4321 C   0  0  0  0  0  0  0  0  0  0  0  0
    4.8522   -0.1961    0.8737 C   0  0  0  0  0  0  0  0  0  0  0  0
    4.3204    1.0536    0.6146 C   0  0  0  0  0  0  0  0  0  0  0  0
    3.1392    1.1700   -0.0922 C   0  0  0  0  0  0  0  0  0  0  0  0
   -1.3146    0.1427   -1.2215 O   0  0  0  0  0  0  0  0  0  0  0  0
   -2.4799    0.0312   -0.5313 C   0  0  0  0  0  0  0  0  0  0  0  0
   -3.1362    1.1700   -0.0872 C   0  0  0  0  0  0  0  0  0  0  0  0
   -4.3206    1.0540    0.6142 C   0  0  0  0  0  0  0  0  0  0  0  0
   -4.8522   -0.1957    0.8737 C   0  0  0  0  0  0  0  0  0  0  0  0
   -4.1999   -1.3322    0.4325 C   0  0  0  0  0  0  0  0  0  0  0  0
   -3.0183   -1.2213   -0.2746 C   0  0  0  0  0  0  0  0  0  0  0  0
    0.0001    1.3953    0.6061 O   0  5  0  0  0  0  0  0  0  0  0  0
    2.5061   -2.1098   -0.6141 H   0  0  0  0  0  0  0  0  0  0  0  0
    4.6170   -2.3077    0.6364 H   0  0  0  0  0  0  0  0  0  0  0  0
    5.7783   -0.2848    1.4222 H   0  0  0  0  0  0  0  0  0  0  0  0
    4.8314    1.9398    0.9612 H   0  0  0  0  0  0  0  0  0  0  0  0
    2.7242    2.1464   -0.2943 H   0  0  0  0  0  0  0  0  0  0  0  0
   -2.7212    2.1464   -0.2894 H   0  0  0  0  0  0  0  0  0  0  0  0
   -4.8317    1.9402    0.9604 H   0  0  0  0  0  0  0  0  0  0  0  0
   -5.7783   -0.2843    1.4222 H   0  0  0  0  0  0  0  0  0  0  0  0
   -4.6168   -2.3073    0.6371 H   0  0  0  0  0  0  0  0  0  0  0  0
   -2.5092   -2.1093   -0.6190 H   0  0  0  0  0  0  0  0  0  0  0  0
  1  2  2  0  0  0  0
  1  3  1  0  0  0  0
  3  4  1  0  0  0  0
  4  5  2  0  0  0  0
  5  6  1  0  0  0  0
  6  7  2  0  0  0  0
  7  8  1  0  0  0  0
  8  9  2  0  0  0  0
  4  9  1  0  0  0  0
  1 10  1  0  0  0  0
 10 11  1  0  0  0  0
 11 12  2  0  0  0  0
 12 13  1  0  0  0  0
 13 14  2  0  0  0  0
 14 15  1  0  0  0  0
 15 16  2  0  0  0  0
 11 16  1  0  0  0  0
  1 17  1  0  0  0  0
  5 18  1  0  0  0  0
  6 19  1  0  0  0  0
  7 20  1  0  0  0  0
  8 21  1  0  0  0  0
  9 22  1  0  0  0  0
 12 23  1  0  0  0  0
 13 24  1  0  0  0  0
 14 25  1  0  0  0  0
 15 26  1  0  0  0  0
 16 27  1  0  0  0  0
M  CHG  1  17  -1
M  END
$$$$
