C14H12O2
APtclcactv12091702573D 0   0.00000     0.00000
 
 28 29  0  0  0  0  0  0  0  0999 V2000
   -1.2404   -0.0326   -0.3636 C   0  0  0  0  0  0  0  0  0  0  0  0
   -2.0861   -0.5285   -1.3381 C   0  0  0  0  0  0  0  0  0  0  0  0
   -3.2370   -1.2033   -0.9763 C   0  0  0  0  0  0  0  0  0  0  0  0
   -3.5421   -1.3825    0.3600 C   0  0  0  0  0  0  0  0  0  0  0  0
   -2.6959   -0.8873    1.3345 C   0  0  0  0  0  0  0  0  0  0  0  0
   -1.5456   -0.2113    0.9727 C   0  0  0  0  0  0  0  0  0  0  0  0
    0.0176    0.6975   -0.7580 C   0  0  0  0  0  0  0  0  0  0  0  0
    0.0469    2.0465   -0.0868 C   0  0  0  0  0  0  0  0  0  0  0  0
   -0.8606    2.3807    0.6375 O   0  0  0  0  0  0  0  0  0  0  0  0
    1.0811    2.8767   -0.2936 O   0  0  0  0  0  0  0  0  0  0  0  0
    1.2193   -0.1037   -0.3280 C   0  0  0  0  0  0  0  0  0  0  0  0
    2.0332   -0.6925   -1.2776 C   0  0  0  0  0  0  0  0  0  0  0  0
    3.1355   -1.4276   -0.8831 C   0  0  0  0  0  0  0  0  0  0  0  0
    3.4241   -1.5734    0.4609 C   0  0  0  0  0  0  0  0  0  0  0  0
    2.6106   -0.9838    1.4104 C   0  0  0  0  0  0  0  0  0  0  0  0
    1.5108   -0.2452    1.0158 C   0  0  0  0  0  0  0  0  0  0  0  0
   -1.8478   -0.3885   -2.3822 H   0  0  0  0  0  0  0  0  0  0  0  0
   -3.8981   -1.5901   -1.7377 H   0  0  0  0  0  0  0  0  0  0  0  0
   -4.4416   -1.9090    0.6427 H   0  0  0  0  0  0  0  0  0  0  0  0
   -2.9345   -1.0267    2.3786 H   0  0  0  0  0  0  0  0  0  0  0  0
   -0.8847    0.1758    1.7341 H   0  0  0  0  0  0  0  0  0  0  0  0
    0.0370    0.8295   -1.8398 H   0  0  0  0  0  0  0  0  0  0  0  0
    1.0554    3.7311    0.1585 H   0  0  0  0  0  0  0  0  0  0  0  0
    1.8078   -0.5786   -2.3276 H   0  0  0  0  0  0  0  0  0  0  0  0
    3.7710   -1.8882   -1.6249 H   0  0  0  0  0  0  0  0  0  0  0  0
    4.2849   -2.1483    0.7691 H   0  0  0  0  0  0  0  0  0  0  0  0
    2.8359   -1.0980    2.4605 H   0  0  0  0  0  0  0  0  0  0  0  0
    0.8753    0.2155    1.7577 H   0  0  0  0  0  0  0  0  0  0  0  0
  1  2  2  0  0  0  0
  2  3  1  0  0  0  0
  3  4  2  0  0  0  0
  4  5  1  0  0  0  0
  5  6  2  0  0  0  0
  1  6  1  0  0  0  0
  1  7  1  0  0  0  0
  7  8  1  0  0  0  0
  8  9  2  0  0  0  0
  8 10  1  0  0  0  0
  7 11  1  0  0  0  0
 11 12  2  0  0  0  0
 12 13  1  0  0  0  0
 13 14  2  0  0  0  0
 14 15  1  0  0  0  0
 15 16  2  0  0  0  0
 11 16  1  0  0  0  0
  2 17  1  0  0  0  0
  3 18  1  0  0  0  0
  4 19  1  0  0  0  0
  5 20  1  0  0  0  0
  6 21  1  0  0  0  0
  7 22  1  0  0  0  0
 10 23  1  0  0  0  0
 12 24  1  0  0  0  0
 13 25  1  0  0  0  0
 14 26  1  0  0  0  0
 15 27  1  0  0  0  0
 16 28  1  0  0  0  0
M  END
$$$$
