C12H10N2O
APtclcactv12111704563D 0   0.00000     0.00000
 
 25 26  0  0  0  0  0  0  0  0999 V2000
    2.4682   -0.9069    0.1826 C   0  0  0  0  0  0  0  0  0  0  0  0
    1.3398    1.1602   -0.3032 C   0  0  0  0  0  0  0  0  0  0  0  0
    3.6848   -0.2601    0.0908 C   0  0  0  0  0  0  0  0  0  0  0  0
    2.5599    1.8006   -0.3936 C   0  0  0  0  0  0  0  0  0  0  0  0
   -2.1389   -0.4486   -0.8465 C   0  0  0  0  0  0  0  0  0  0  0  0
   -1.3018    0.9665    0.9082 C   0  0  0  0  0  0  0  0  0  0  0  0
    3.7310    1.0918   -0.1970 C   0  0  0  0  0  0  0  0  0  0  0  0
   -3.3090    0.2844   -0.8743 C   0  0  0  0  0  0  0  0  0  0  0  0
   -2.4744    1.6951    0.8750 C   0  0  0  0  0  0  0  0  0  0  0  0
   -3.4769    1.3548   -0.0149 C   0  0  0  0  0  0  0  0  0  0  0  0
    1.2897   -0.1979   -0.0144 C   0  0  0  0  0  0  0  0  0  0  0  0
   -1.1298   -0.1095    0.0463 C   0  0  0  0  0  0  0  0  0  0  0  0
   -1.0627   -2.7068    0.2132 O   0  0  0  0  0  0  0  0  0  0  0  0
    0.0120   -2.1339    0.1909 N   0  0  0  0  0  0  0  0  0  0  0  0
    0.0561   -0.8497    0.0774 N   0  0  0  0  0  0  0  0  0  0  0  0
    2.4329   -1.9636    0.4029 H   0  0  0  0  0  0  0  0  0  0  0  0
    0.4256    1.7144   -0.4566 H   0  0  0  0  0  0  0  0  0  0  0  0
    4.6012   -0.8106    0.2441 H   0  0  0  0  0  0  0  0  0  0  0  0
    2.5996    2.8563   -0.6181 H   0  0  0  0  0  0  0  0  0  0  0  0
   -2.0103   -1.2871   -1.5148 H   0  0  0  0  0  0  0  0  0  0  0  0
   -0.5192    1.2330    1.6032 H   0  0  0  0  0  0  0  0  0  0  0  0
    4.6838    1.5952   -0.2679 H   0  0  0  0  0  0  0  0  0  0  0  0
   -4.0937    0.0216   -1.5682 H   0  0  0  0  0  0  0  0  0  0  0  0
   -2.6088    2.5316    1.5448 H   0  0  0  0  0  0  0  0  0  0  0  0
   -4.3928    1.9265   -0.0390 H   0  0  0  0  0  0  0  0  0  0  0  0
 11 15  1  0  0  0  0
  1 11  1  0  0  0  0
  2 11  2  0  0  0  0
 12 15  1  0  0  0  0
 14 15  1  0  0  0  0
  1  3  2  0  0  0  0
  1 16  1  0  0  0  0
  2  4  1  0  0  0  0
  2 17  1  0  0  0  0
  5 12  2  0  0  0  0
  6 12  1  0  0  0  0
 13 14  2  0  0  0  0
  3  7  1  0  0  0  0
  3 18  1  0  0  0  0
  4 19  1  0  0  0  0
  5  8  1  0  0  0  0
  5 20  1  0  0  0  0
  6  9  2  0  0  0  0
  6 21  1  0  0  0  0
  7 22  1  0  0  0  0
  8 10  2  0  0  0  0
  8 23  1  0  0  0  0
  9 24  1  0  0  0  0
 10 25  1  0  0  0  0
  4  7  2  0  0  0  0
  9 10  1  0  0  0  0
M  END
$$$$
