C18H22N4O5
APtclcactv12211717173D 0   0.00000     0.00000
 
 49 50  0  0  0  0  0  0  0  0999 V2000
   -4.6295    1.4336   -0.2760 C   0  0  0  0  0  0  0  0  0  0  0  0
   -3.2668    1.2305   -0.2377 C   0  0  0  0  0  0  0  0  0  0  0  0
   -5.0118   -0.8905    0.1906 C   0  0  0  0  0  0  0  0  0  0  0  0
    2.9878    1.3710   -0.2803 C   0  0  0  0  0  0  0  0  0  0  0  0
    2.6131   -0.9662    0.1869 C   0  0  0  0  0  0  0  0  0  0  0  0
    1.2528   -0.7599    0.1494 C   0  0  0  0  0  0  0  0  0  0  0  0
    5.3889   -1.4572    0.2770 C   0  0  0  0  0  0  0  0  0  0  0  0
    5.5679   -2.2064   -1.0450 C   0  0  0  0  0  0  0  0  0  0  0  0
    5.7828    1.0008   -0.2149 C   0  0  0  0  0  0  0  0  0  0  0  0
    6.1075    1.6720    1.1210 C   0  0  0  0  0  0  0  0  0  0  0  0
   -4.1258   -3.3947    0.6923 C   0  0  0  0  0  0  0  0  0  0  0  0
    1.0898    2.9657   -0.5938 C   0  0  0  0  0  0  0  0  0  0  0  0
    6.7359   -1.9776   -2.6835 H   0  0  0  0  0  0  0  0  0  0  0  0
    7.0611    1.1151    2.8186 H   0  0  0  0  0  0  0  0  0  0  0  0
   -5.4997    0.3772   -0.0628 C   0  0  0  0  0  0  0  0  0  0  0  0
   -3.6449   -1.1135    0.2323 C   0  0  0  0  0  0  0  0  0  0  0  0
   -2.7598   -0.0469    0.0172 C   0  0  0  0  0  0  0  0  0  0  0  0
    0.7479    0.5199   -0.1045 C   0  0  0  0  0  0  0  0  0  0  0  0
    1.6284    1.5853   -0.3194 C   0  0  0  0  0  0  0  0  0  0  0  0
    3.4861    0.0966   -0.0274 C   0  0  0  0  0  0  0  0  0  0  0  0
   -7.7297   -0.3185    0.0805 O   0  0  0  0  0  0  0  0  0  0  0  0
    6.5695   -1.5557   -1.8294 O   0  0  0  0  0  0  0  0  0  0  0  0
    6.8217    0.7559    1.9532 O   0  0  0  0  0  0  0  0  0  0  0  0
   -3.1645   -2.3586    0.4817 O   0  0  0  0  0  0  0  0  0  0  0  0
   -1.4111   -0.2553    0.0555 N   0  0  0  0  0  0  0  0  0  0  0  0
   -0.6006    0.7283   -0.1429 N   0  0  0  0  0  0  0  0  0  0  0  0
   -7.3953    1.7238   -0.3291 O   0  5  0  0  0  0  0  0  0  0  0  0
    4.8622   -0.1163    0.0109 N   0  0  0  0  0  0  0  0  0  0  0  0
   -6.9612    0.6078   -0.1064 N   0  3  0  0  0  0  0  0  0  0  0  0
   -5.0206    2.4217   -0.4685 H   0  0  0  0  0  0  0  0  0  0  0  0
   -2.5918    2.0569   -0.4048 H   0  0  0  0  0  0  0  0  0  0  0  0
   -5.6969   -1.7087    0.3564 H   0  0  0  0  0  0  0  0  0  0  0  0
   -3.6098   -4.3362    0.8805 H   0  0  0  0  0  0  0  0  0  0  0  0
   -4.7484   -3.1436    1.5511 H   0  0  0  0  0  0  0  0  0  0  0  0
   -4.7524   -3.4947   -0.1939 H   0  0  0  0  0  0  0  0  0  0  0  0
    0.9623    3.4998    0.3478 H   0  0  0  0  0  0  0  0  0  0  0  0
    1.7899    3.5094   -1.2281 H   0  0  0  0  0  0  0  0  0  0  0  0
    0.1275    2.8863   -1.0996 H   0  0  0  0  0  0  0  0  0  0  0  0
    3.6683    2.1921   -0.4506 H   0  0  0  0  0  0  0  0  0  0  0  0
    4.6905   -2.0024    0.9119 H   0  0  0  0  0  0  0  0  0  0  0  0
    6.3515   -1.3759    0.7818 H   0  0  0  0  0  0  0  0  0  0  0  0
    5.8748   -3.2325   -0.8424 H   0  0  0  0  0  0  0  0  0  0  0  0
    4.6245   -2.2105   -1.5910 H   0  0  0  0  0  0  0  0  0  0  0  0
    5.3172    1.7260   -0.8823 H   0  0  0  0  0  0  0  0  0  0  0  0
    6.7018    0.6284   -0.6674 H   0  0  0  0  0  0  0  0  0  0  0  0
    6.7205    2.5558    0.9440 H   0  0  0  0  0  0  0  0  0  0  0  0
    5.1812    1.9653    1.6150 H   0  0  0  0  0  0  0  0  0  0  0  0
    3.0036   -1.9538    0.3829 H   0  0  0  0  0  0  0  0  0  0  0  0
    0.5760   -1.5850    0.3158 H   0  0  0  0  0  0  0  0  0  0  0  0
 27 29  1  0  0  0  0
 15 29  1  0  0  0  0
  1 15  1  0  0  0  0
  1  2  2  0  0  0  0
  3 15  2  0  0  0  0
  3 16  1  0  0  0  0
 16 24  1  0  0  0  0
 11 24  1  0  0  0  0
 16 17  2  0  0  0  0
  2 17  1  0  0  0  0
 17 25  1  0  0  0  0
 25 26  2  0  0  0  0
 18 26  1  0  0  0  0
 18 19  2  0  0  0  0
 12 19  1  0  0  0  0
  4 19  1  0  0  0  0
  4 20  2  0  0  0  0
 20 28  1  0  0  0  0
  7 28  1  0  0  0  0
  7  8  1  0  0  0  0
  8 22  1  0  0  0  0
  9 28  1  0  0  0  0
  9 10  1  0  0  0  0
 10 23  1  0  0  0  0
  5 20  1  0  0  0  0
  5  6  2  0  0  0  0
  6 18  1  0  0  0  0
 21 29  2  0  0  0  0
  1 30  1  0  0  0  0
  2 31  1  0  0  0  0
  3 32  1  0  0  0  0
 11 33  1  0  0  0  0
 11 34  1  0  0  0  0
 11 35  1  0  0  0  0
 12 36  1  0  0  0  0
 12 37  1  0  0  0  0
 12 38  1  0  0  0  0
  4 39  1  0  0  0  0
  7 40  1  0  0  0  0
  7 41  1  0  0  0  0
  8 42  1  0  0  0  0
  8 43  1  0  0  0  0
 13 22  1  0  0  0  0
  9 44  1  0  0  0  0
  9 45  1  0  0  0  0
 10 46  1  0  0  0  0
 10 47  1  0  0  0  0
 14 23  1  0  0  0  0
  5 48  1  0  0  0  0
  6 49  1  0  0  0  0
M  CHG  2  27  -1  29   1
M  END
$$$$
