C18H14N4O
APtclcactv12211717163D 0   0.00000     0.00000
 
 37 39  0  0  0  0  0  0  0  0999 V2000
   -0.2360    1.9379    0.0076 C   0  0  0  0  0  0  0  0  0  0  0  0
   -0.2517   -0.4749    0.0956 C   0  0  0  0  0  0  0  0  0  0  0  0
    1.1401    1.9316   -0.0183 C   0  0  0  0  0  0  0  0  0  0  0  0
    1.1243   -0.4883    0.0700 C   0  0  0  0  0  0  0  0  0  0  0  0
    5.8961   -1.6369    0.0201 C   0  0  0  0  0  0  0  0  0  0  0  0
    5.9118    0.7784   -0.0689 C   0  0  0  0  0  0  0  0  0  0  0  0
    7.2748   -1.6389   -0.0069 C   0  0  0  0  0  0  0  0  0  0  0  0
    7.2905    0.7605   -0.0953 C   0  0  0  0  0  0  0  0  0  0  0  0
    7.9710   -0.4442   -0.0645 C   0  0  0  0  0  0  0  0  0  0  0  0
   -2.8080    1.5896    0.0698 H   0  0  0  0  0  0  0  0  0  0  0  0
   -0.9386    0.7365    0.0646 C   0  0  0  0  0  0  0  0  0  0  0  0
    1.8332    0.7166    0.0127 C   0  0  0  0  0  0  0  0  0  0  0  0
    5.2018   -0.4242   -0.0108 C   0  0  0  0  0  0  0  0  0  0  0  0
   -8.2937   -0.3506   -0.1626 O   0  0  0  0  0  0  0  0  0  0  0  0
   -4.3089   -0.3615    0.0673 C   0  0  0  0  0  0  0  0  0  0  0  0
   -7.0724   -0.3539   -0.0918 C   0  0  0  0  0  0  0  0  0  0  0  0
   -5.0188   -1.5843    0.0063 C   0  0  0  0  0  0  0  0  0  0  0  0
   -5.0148    0.8650    0.0528 C   0  0  0  0  0  0  0  0  0  0  0  0
   -6.3719   -1.5777   -0.0716 C   0  0  0  0  0  0  0  0  0  0  0  0
   -6.3679    0.8659   -0.0252 C   0  0  0  0  0  0  0  0  0  0  0  0
   -2.9807   -0.3652    0.1438 N   0  0  0  0  0  0  0  0  0  0  0  0
    3.1979    0.7067   -0.0133 N   0  0  0  0  0  0  0  0  0  0  0  0
    3.8354   -0.4143    0.0153 N   0  0  0  0  0  0  0  0  0  0  0  0
   -2.3286    0.7466    0.0910 N   0  0  0  0  0  0  0  0  0  0  0  0
   -0.7715    2.8756   -0.0118 H   0  0  0  0  0  0  0  0  0  0  0  0
   -0.7995   -1.4046    0.1394 H   0  0  0  0  0  0  0  0  0  0  0  0
    1.6842    2.8634   -0.0629 H   0  0  0  0  0  0  0  0  0  0  0  0
    1.6563   -1.4279    0.0944 H   0  0  0  0  0  0  0  0  0  0  0  0
   -4.4829   -2.5218    0.0213 H   0  0  0  0  0  0  0  0  0  0  0  0
   -4.4758    1.7995    0.1041 H   0  0  0  0  0  0  0  0  0  0  0  0
   -6.9142   -2.5106   -0.1179 H   0  0  0  0  0  0  0  0  0  0  0  0
   -6.9071    1.8016   -0.0364 H   0  0  0  0  0  0  0  0  0  0  0  0
    5.3540   -2.5701    0.0606 H   0  0  0  0  0  0  0  0  0  0  0  0
    5.3821    1.7192   -0.0927 H   0  0  0  0  0  0  0  0  0  0  0  0
    7.8127   -2.5752    0.0173 H   0  0  0  0  0  0  0  0  0  0  0  0
    7.8405    1.6889   -0.1402 H   0  0  0  0  0  0  0  0  0  0  0  0
    9.0508   -0.4520   -0.0851 H   0  0  0  0  0  0  0  0  0  0  0  0
 14 16  2  0  0  0  0
 21 24  1  0  0  0  0
 11 24  1  0  0  0  0
 10 24  1  0  0  0  0
 15 21  2  0  0  0  0
 22 23  2  0  0  0  0
 12 22  1  0  0  0  0
 13 23  1  0  0  0  0
  1 11  2  0  0  0  0
  2 11  1  0  0  0  0
  3 12  2  0  0  0  0
  4 12  1  0  0  0  0
  1  3  1  0  0  0  0
  1 25  1  0  0  0  0
  2  4  2  0  0  0  0
  2 26  1  0  0  0  0
  3 27  1  0  0  0  0
  4 28  1  0  0  0  0
 15 17  1  0  0  0  0
 15 18  1  0  0  0  0
 17 19  2  0  0  0  0
 17 29  1  0  0  0  0
 18 20  2  0  0  0  0
 18 30  1  0  0  0  0
  5 13  2  0  0  0  0
  6 13  1  0  0  0  0
 16 19  1  0  0  0  0
 19 31  1  0  0  0  0
 16 20  1  0  0  0  0
 20 32  1  0  0  0  0
  5  7  1  0  0  0  0
  5 33  1  0  0  0  0
  6  8  2  0  0  0  0
  6 34  1  0  0  0  0
  7  9  2  0  0  0  0
  7 35  1  0  0  0  0
  8  9  1  0  0  0  0
  8 36  1  0  0  0  0
  9 37  1  0  0  0  0
M  END
$$$$
