C16H18N4O4
APtclcactv12211717123D 0   0.00000     0.00000
 
 42 43  0  0  0  0  0  0  0  0999 V2000
   -2.6299    1.2338    0.6626 C   0  0  0  0  0  0  0  0  0  0  0  0
   -2.3785   -0.8839   -0.4665 C   0  0  0  0  0  0  0  0  0  0  0  0
   -1.2615    1.3650    0.7302 C   0  0  0  0  0  0  0  0  0  0  0  0
   -1.0092   -0.7601   -0.4027 C   0  0  0  0  0  0  0  0  0  0  0  0
    3.8610   -1.2953   -0.6969 C   0  0  0  0  0  0  0  0  0  0  0  0
    3.6092    0.8260    0.4329 C   0  0  0  0  0  0  0  0  0  0  0  0
    5.2317   -1.1603   -0.6283 C   0  0  0  0  0  0  0  0  0  0  0  0
    4.9816    0.9473    0.4942 C   0  0  0  0  0  0  0  0  0  0  0  0
   -5.1758   -1.1998   -0.6298 C   0  0  0  0  0  0  0  0  0  0  0  0
   -5.4401    1.0269    0.5579 C   0  0  0  0  0  0  0  0  0  0  0  0
   -5.3808   -2.2897    0.4242 C   0  0  0  0  0  0  0  0  0  0  0  0
   -5.7423    2.0695   -0.5204 C   0  0  0  0  0  0  0  0  0  0  0  0
   -6.5211   -2.4901    2.0858 H   0  0  0  0  0  0  0  0  0  0  0  0
   -6.7380    2.0707   -2.2839 H   0  0  0  0  0  0  0  0  0  0  0  0
   -3.1946    0.1107    0.0649 C   0  0  0  0  0  0  0  0  0  0  0  0
   -0.4378    0.3674    0.1972 C   0  0  0  0  0  0  0  0  0  0  0  0
    3.0368   -0.2999   -0.1651 C   0  0  0  0  0  0  0  0  0  0  0  0
    5.7914   -0.0427   -0.0341 C   0  0  0  0  0  0  0  0  0  0  0  0
    7.9792   -0.7747   -0.4284 O   0  0  0  0  0  0  0  0  0  0  0  0
   -6.3411   -1.8477    1.3858 O   0  0  0  0  0  0  0  0  0  0  0  0
   -6.5094    1.4664   -1.5644 O   0  0  0  0  0  0  0  0  0  0  0  0
    0.9192    0.4940    0.2619 N   0  0  0  0  0  0  0  0  0  0  0  0
    1.6770   -0.4268   -0.2300 N   0  0  0  0  0  0  0  0  0  0  0  0
    7.7594    1.0769    0.5583 O   0  5  0  0  0  0  0  0  0  0  0  0
   -4.5794   -0.0185   -0.0012 N   0  0  0  0  0  0  0  0  0  0  0  0
    7.2636    0.0946    0.0361 N   0  3  0  0  0  0  0  0  0  0  0  0
   -3.2664    2.0012    1.0777 H   0  0  0  0  0  0  0  0  0  0  0  0
   -2.8204   -1.7539   -0.9294 H   0  0  0  0  0  0  0  0  0  0  0  0
   -4.5117   -1.5700   -1.4108 H   0  0  0  0  0  0  0  0  0  0  0  0
   -6.1375   -0.9320   -1.0674 H   0  0  0  0  0  0  0  0  0  0  0  0
   -4.9325    1.5064    1.3948 H   0  0  0  0  0  0  0  0  0  0  0  0
   -6.3729    0.5824    0.9051 H   0  0  0  0  0  0  0  0  0  0  0  0
   -0.8241    2.2369    1.1937 H   0  0  0  0  0  0  0  0  0  0  0  0
   -0.3767   -1.5323   -0.8152 H   0  0  0  0  0  0  0  0  0  0  0  0
   -5.7412   -3.1983   -0.0580 H   0  0  0  0  0  0  0  0  0  0  0  0
   -4.4340   -2.4945    0.9240 H   0  0  0  0  0  0  0  0  0  0  0  0
   -6.3080    2.8917   -0.0823 H   0  0  0  0  0  0  0  0  0  0  0  0
   -4.8067    2.4499   -0.9303 H   0  0  0  0  0  0  0  0  0  0  0  0
    3.4255   -2.1660   -1.1645 H   0  0  0  0  0  0  0  0  0  0  0  0
    2.9784    1.5990    0.8463 H   0  0  0  0  0  0  0  0  0  0  0  0
    5.8700   -1.9287   -1.0388 H   0  0  0  0  0  0  0  0  0  0  0  0
    5.4254    1.8170    0.9558 H   0  0  0  0  0  0  0  0  0  0  0  0
 15 25  1  0  0  0  0
  1 15  2  0  0  0  0
  2 15  1  0  0  0  0
  9 25  1  0  0  0  0
 10 25  1  0  0  0  0
  1  3  1  0  0  0  0
  2  4  2  0  0  0  0
  9 11  1  0  0  0  0
 10 12  1  0  0  0  0
  3 16  2  0  0  0  0
 11 20  1  0  0  0  0
 12 21  1  0  0  0  0
 16 22  1  0  0  0  0
 22 23  2  0  0  0  0
 17 23  1  0  0  0  0
  5 17  2  0  0  0  0
  6 17  1  0  0  0  0
  5  7  1  0  0  0  0
  6  8  2  0  0  0  0
  7 18  2  0  0  0  0
 18 26  1  0  0  0  0
 19 26  2  0  0  0  0
 24 26  1  0  0  0  0
  4 16  1  0  0  0  0
  8 18  1  0  0  0  0
  1 27  1  0  0  0  0
  2 28  1  0  0  0  0
  9 29  1  0  0  0  0
  9 30  1  0  0  0  0
 10 31  1  0  0  0  0
 10 32  1  0  0  0  0
  3 33  1  0  0  0  0
  4 34  1  0  0  0  0
 11 35  1  0  0  0  0
 11 36  1  0  0  0  0
 12 37  1  0  0  0  0
 12 38  1  0  0  0  0
 13 20  1  0  0  0  0
 14 21  1  0  0  0  0
  5 39  1  0  0  0  0
  6 40  1  0  0  0  0
  7 41  1  0  0  0  0
  8 42  1  0  0  0  0
M  CHG  2  24  -1  26   1
M  END
$$$$
