C18H10N2O2S
APtclcactv12211717153D 0   0.00000     0.00000
 
 33 37  0  0  0  0  0  0  0  0999 V2000
   -0.6843    1.7528    0.0002 C   0  0  0  0  0  0  0  0  0  0  0  0
    0.6843    1.7528   -0.0001 C   0  0  0  0  0  0  0  0  0  0  0  0
   -5.6589   -1.7168    0.0005 C   0  0  0  0  0  0  0  0  0  0  0  0
   -6.1729    1.0202   -0.0012 C   0  0  0  0  0  0  0  0  0  0  0  0
   -6.9548   -1.2514   -0.0003 C   0  0  0  0  0  0  0  0  0  0  0  0
   -7.2117    0.1116   -0.0011 C   0  0  0  0  0  0  0  0  0  0  0  0
    5.6589   -1.7168   -0.0007 C   0  0  0  0  0  0  0  0  0  0  0  0
    6.1729    1.0202    0.0004 C   0  0  0  0  0  0  0  0  0  0  0  0
    6.9548   -1.2514   -0.0003 C   0  0  0  0  0  0  0  0  0  0  0  0
    7.2117    0.1116    0.0002 C   0  0  0  0  0  0  0  0  0  0  0  0
   -2.7007    0.2461    0.0006 C   0  0  0  0  0  0  0  0  0  0  0  0
   -1.2559    0.5119    0.0006 C   0  0  0  0  0  0  0  0  0  0  0  0
    1.2559    0.5119   -0.0000 C   0  0  0  0  0  0  0  0  0  0  0  0
    2.7007    0.2461   -0.0004 C   0  0  0  0  0  0  0  0  0  0  0  0
   -3.2469   -0.9471    0.0010 N   0  0  0  0  0  0  0  0  0  0  0  0
    3.2469   -0.9471   -0.0007 N   0  0  0  0  0  0  0  0  0  0  0  0
   -4.5966   -0.8088    0.0004 C   0  0  0  0  0  0  0  0  0  0  0  0
   -4.8620    0.5710   -0.0004 C   0  0  0  0  0  0  0  0  0  0  0  0
    4.5966   -0.8088   -0.0005 C   0  0  0  0  0  0  0  0  0  0  0  0
    4.8620    0.5710    0.0001 C   0  0  0  0  0  0  0  0  0  0  0  0
   -3.6610    1.1917   -0.0002 O   0  0  0  0  0  0  0  0  0  0  0  0
    3.6610    1.1917    0.0001 O   0  0  0  0  0  0  0  0  0  0  0  0
   -0.0000   -0.7187    0.0006 S   0  0  0  0  0  0  0  0  0  0  0  0
   -1.2667    2.6623    0.0045 H   0  0  0  0  0  0  0  0  0  0  0  0
    1.2667    2.6623   -0.0008 H   0  0  0  0  0  0  0  0  0  0  0  0
   -5.4643   -2.7791    0.0055 H   0  0  0  0  0  0  0  0  0  0  0  0
   -6.3813    2.0799   -0.0021 H   0  0  0  0  0  0  0  0  0  0  0  0
   -7.7765   -1.9522   -0.0003 H   0  0  0  0  0  0  0  0  0  0  0  0
   -8.2324    0.4646   -0.0017 H   0  0  0  0  0  0  0  0  0  0  0  0
    5.4642   -2.7791   -0.0055 H   0  0  0  0  0  0  0  0  0  0  0  0
    6.3813    2.0799    0.0012 H   0  0  0  0  0  0  0  0  0  0  0  0
    7.7765   -1.9522   -0.0005 H   0  0  0  0  0  0  0  0  0  0  0  0
    8.2324    0.4646    0.0005 H   0  0  0  0  0  0  0  0  0  0  0  0
 11 12  1  0  0  0  0
 11 15  2  0  0  0  0
 11 21  1  0  0  0  0
 12 23  1  0  0  0  0
  1 12  2  0  0  0  0
 15 17  1  0  0  0  0
 18 21  1  0  0  0  0
 13 23  1  0  0  0  0
  1  2  1  0  0  0  0
  3 17  1  0  0  0  0
  4 18  1  0  0  0  0
 13 14  1  0  0  0  0
  3  5  2  0  0  0  0
  4  6  2  0  0  0  0
 14 16  2  0  0  0  0
 14 22  1  0  0  0  0
 16 19  1  0  0  0  0
 20 22  1  0  0  0  0
  7 19  2  0  0  0  0
  8 20  2  0  0  0  0
  7  9  1  0  0  0  0
  8 10  1  0  0  0  0
 17 18  2  0  0  0  0
  2 13  2  0  0  0  0
  5  6  1  0  0  0  0
 19 20  1  0  0  0  0
  9 10  2  0  0  0  0
  1 24  1  0  0  0  0
  2 25  1  0  0  0  0
  3 26  1  0  0  0  0
  4 27  1  0  0  0  0
  5 28  1  0  0  0  0
  6 29  1  0  0  0  0
  7 30  1  0  0  0  0
  8 31  1  0  0  0  0
  9 32  1  0  0  0  0
 10 33  1  0  0  0  0
M  END
$$$$
