C16H18N4O3
APtclcactv12211717123D 0   0.00000     0.00000
 
 41 42  0  0  0  0  0  0  0  0999 V2000
   -2.9441    1.4374    0.3087 C   0  0  0  0  0  0  0  0  0  0  0  0
   -2.7152   -0.8225   -0.5058 C   0  0  0  0  0  0  0  0  0  0  0  0
   -1.5750    1.5493    0.3953 C   0  0  0  0  0  0  0  0  0  0  0  0
   -1.3453   -0.7184   -0.4221 C   0  0  0  0  0  0  0  0  0  0  0  0
    3.5166   -1.3869   -0.5035 C   0  0  0  0  0  0  0  0  0  0  0  0
    3.2874    0.8766    0.3113 C   0  0  0  0  0  0  0  0  0  0  0  0
    4.8881   -1.2710   -0.4164 C   0  0  0  0  0  0  0  0  0  0  0  0
    4.6603    0.9778    0.3931 C   0  0  0  0  0  0  0  0  0  0  0  0
   -5.5143   -1.1021   -0.7009 C   0  0  0  0  0  0  0  0  0  0  0  0
   -5.7550    1.2741    0.1561 C   0  0  0  0  0  0  0  0  0  0  0  0
   -5.7710   -2.0289    0.4891 C   0  0  0  0  0  0  0  0  0  0  0  0
   -6.0057    2.1608   -1.0652 C   0  0  0  0  0  0  0  0  0  0  0  0
   -6.9563   -1.9714    2.1301 H   0  0  0  0  0  0  0  0  0  0  0  0
   -3.5203    0.2530   -0.1415 C   0  0  0  0  0  0  0  0  0  0  0  0
   -0.7623    0.4705    0.0300 C   0  0  0  0  0  0  0  0  0  0  0  0
    2.7034   -0.3104   -0.1391 C   0  0  0  0  0  0  0  0  0  0  0  0
    5.4593   -0.0926    0.0309 C   0  0  0  0  0  0  0  0  0  0  0  0
    7.4380    1.0595    0.5154 O   0  0  0  0  0  0  0  0  0  0  0  0
   -6.7439   -1.4373    1.3524 O   0  0  0  0  0  0  0  0  0  0  0  0
    0.5953    0.5777    0.1140 N   0  0  0  0  0  0  0  0  0  0  0  0
    1.3430   -0.4179   -0.2232 N   0  0  0  0  0  0  0  0  0  0  0  0
    7.6381   -0.9163   -0.1963 O   0  5  0  0  0  0  0  0  0  0  0  0
   -4.9058    0.1436   -0.2273 N   0  0  0  0  0  0  0  0  0  0  0  0
    6.9321    0.0238    0.1220 N   0  3  0  0  0  0  0  0  0  0  0  0
   -3.5722    2.2680    0.5947 H   0  0  0  0  0  0  0  0  0  0  0  0
   -3.1660   -1.7398   -0.8547 H   0  0  0  0  0  0  0  0  0  0  0  0
   -1.1287    2.4687    0.7443 H   0  0  0  0  0  0  0  0  0  0  0  0
   -0.7213   -1.5531   -0.7053 H   0  0  0  0  0  0  0  0  0  0  0  0
    3.0723   -2.3057   -0.8567 H   0  0  0  0  0  0  0  0  0  0  0  0
    2.6651    1.7124    0.5950 H   0  0  0  0  0  0  0  0  0  0  0  0
    5.5178   -2.1023   -0.6970 H   0  0  0  0  0  0  0  0  0  0  0  0
    5.1131    1.8944    0.7414 H   0  0  0  0  0  0  0  0  0  0  0  0
   -4.8401   -1.5915   -1.4038 H   0  0  0  0  0  0  0  0  0  0  0  0
   -6.4583   -0.8792   -1.1981 H   0  0  0  0  0  0  0  0  0  0  0  0
   -5.2569    1.8561    0.9316 H   0  0  0  0  0  0  0  0  0  0  0  0
   -6.7063    0.9015    0.5361 H   0  0  0  0  0  0  0  0  0  0  0  0
   -6.1408   -2.9889    0.1288 H   0  0  0  0  0  0  0  0  0  0  0  0
   -4.8419   -2.1805    1.0386 H   0  0  0  0  0  0  0  0  0  0  0  0
   -6.5038    1.5789   -1.8407 H   0  0  0  0  0  0  0  0  0  0  0  0
   -6.6375    3.0020   -0.7800 H   0  0  0  0  0  0  0  0  0  0  0  0
   -5.0544    2.5334   -1.4452 H   0  0  0  0  0  0  0  0  0  0  0  0
 22 24  1  0  0  0  0
 18 24  2  0  0  0  0
 11 19  1  0  0  0  0
 14 23  1  0  0  0  0
  9 23  1  0  0  0  0
 10 23  1  0  0  0  0
 20 21  2  0  0  0  0
 15 20  1  0  0  0  0
 16 21  1  0  0  0  0
 17 24  1  0  0  0  0
  1 14  2  0  0  0  0
  2 14  1  0  0  0  0
  3 15  2  0  0  0  0
  4 15  1  0  0  0  0
  5 16  2  0  0  0  0
  6 16  1  0  0  0  0
  7 17  2  0  0  0  0
  8 17  1  0  0  0  0
  1  3  1  0  0  0  0
  2  4  2  0  0  0  0
  5  7  1  0  0  0  0
  6  8  2  0  0  0  0
  9 11  1  0  0  0  0
 10 12  1  0  0  0  0
 13 19  1  0  0  0  0
  1 25  1  0  0  0  0
  2 26  1  0  0  0  0
  3 27  1  0  0  0  0
  4 28  1  0  0  0  0
  5 29  1  0  0  0  0
  6 30  1  0  0  0  0
  7 31  1  0  0  0  0
  8 32  1  0  0  0  0
  9 33  1  0  0  0  0
  9 34  1  0  0  0  0
 10 35  1  0  0  0  0
 10 36  1  0  0  0  0
 11 37  1  0  0  0  0
 11 38  1  0  0  0  0
 12 39  1  0  0  0  0
 12 40  1  0  0  0  0
 12 41  1  0  0  0  0
M  CHG  2  22  -1  24   1
M  END
$$$$
