C18H11NO3
APtclcactv12211717153D 0   0.00000     0.00000
 
 33 36  0  0  0  0  0  0  0  0999 V2000
    2.9374   -1.4376    0.0157 C   0  0  0  0  0  0  0  0  0  0  0  0
   -3.6146    0.7814    1.4100 C   0  0  0  0  0  0  0  0  0  0  0  0
   -3.6046    0.8644   -1.3715 C   0  0  0  0  0  0  0  0  0  0  0  0
    2.4112    2.2389    0.0037 C   0  0  0  0  0  0  0  0  0  0  0  0
   -4.5550    1.5303    0.7292 C   0  0  0  0  0  0  0  0  0  0  0  0
   -4.5500    1.5716   -0.6541 C   0  0  0  0  0  0  0  0  0  0  0  0
    4.5339    0.4220    0.0342 C   0  0  0  0  0  0  0  0  0  0  0  0
    3.7020    2.6691    0.0194 C   0  0  0  0  0  0  0  0  0  0  0  0
    4.7617    1.7641    0.0349 C   0  0  0  0  0  0  0  0  0  0  0  0
    1.2349   -3.5398   -0.8883 H   0  0  0  0  0  0  0  0  0  0  0  0
    0.6098   -0.8727   -0.0162 C   0  0  0  0  0  0  0  0  0  0  0  0
    1.6259   -1.8334   -0.0013 C   0  0  0  0  0  0  0  0  0  0  0  0
   -1.2852   -1.0485    2.3390 O   0  0  0  0  0  0  0  0  0  0  0  0
   -1.2686   -0.9076   -2.3913 O   0  0  0  0  0  0  0  0  0  0  0  0
    1.3133   -3.1561   -0.0042 O   0  0  0  0  0  0  0  0  0  0  0  0
   -0.8278   -1.3243   -0.0349 C   0  0  0  0  0  0  0  0  0  0  0  0
   -1.5539   -0.8033    1.1825 C   0  0  0  0  0  0  0  0  0  0  0  0
   -1.5455   -0.7318   -1.2242 C   0  0  0  0  0  0  0  0  0  0  0  0
   -2.6497    0.0586    0.7042 C   0  0  0  0  0  0  0  0  0  0  0  0
   -2.6446    0.1007   -0.7031 C   0  0  0  0  0  0  0  0  0  0  0  0
    2.1349    0.8602    0.0019 C   0  0  0  0  0  0  0  0  0  0  0  0
    3.2140   -0.0581    0.0176 C   0  0  0  0  0  0  0  0  0  0  0  0
    0.8762    0.4102   -0.0140 N   0  0  0  0  0  0  0  0  0  0  0  0
   -0.8795   -2.4126   -0.0668 H   0  0  0  0  0  0  0  0  0  0  0  0
    3.7365   -2.1640    0.0318 H   0  0  0  0  0  0  0  0  0  0  0  0
   -3.6228    0.7581    2.4897 H   0  0  0  0  0  0  0  0  0  0  0  0
   -3.6079    0.9018   -2.4508 H   0  0  0  0  0  0  0  0  0  0  0  0
    1.6017    2.9538   -0.0078 H   0  0  0  0  0  0  0  0  0  0  0  0
   -5.2986    2.0870    1.2800 H   0  0  0  0  0  0  0  0  0  0  0  0
   -5.2898    2.1604   -1.1760 H   0  0  0  0  0  0  0  0  0  0  0  0
    5.3633   -0.2696    0.0459 H   0  0  0  0  0  0  0  0  0  0  0  0
    3.9086    3.7292    0.0204 H   0  0  0  0  0  0  0  0  0  0  0  0
    5.7768    2.1324    0.0480 H   0  0  0  0  0  0  0  0  0  0  0  0
 11 16  1  0  0  0  0
 16 17  1  0  0  0  0
 16 18  1  0  0  0  0
 11 23  2  0  0  0  0
 11 12  1  0  0  0  0
 17 19  1  0  0  0  0
 13 17  2  0  0  0  0
 18 20  1  0  0  0  0
 14 18  2  0  0  0  0
 21 23  1  0  0  0  0
  1 12  2  0  0  0  0
 12 15  1  0  0  0  0
  2 19  1  0  0  0  0
  3 20  1  0  0  0  0
 21 22  2  0  0  0  0
  4 21  1  0  0  0  0
  2  5  2  0  0  0  0
  3  6  2  0  0  0  0
  7 22  1  0  0  0  0
  4  8  2  0  0  0  0
  7  9  2  0  0  0  0
 19 20  2  0  0  0  0
  1 22  1  0  0  0  0
  5  6  1  0  0  0  0
  8  9  1  0  0  0  0
 16 24  1  0  0  0  0
  1 25  1  0  0  0  0
 10 15  1  0  0  0  0
  2 26  1  0  0  0  0
  3 27  1  0  0  0  0
  4 28  1  0  0  0  0
  5 29  1  0  0  0  0
  6 30  1  0  0  0  0
  7 31  1  0  0  0  0
  8 32  1  0  0  0  0
  9 33  1  0  0  0  0
M  END
$$$$
