C8H19O4PS3
APtclcactv12151716413D 0   0.00000     0.00000
 
 35 34  0  0  0  0  0  0  0  0999 V2000
   -0.5750    1.0082    1.0625 C   0  0  0  0  0  0  0  0  0  0  0  0
    1.3008   -2.7601   -0.2197 C   0  0  0  0  0  0  0  0  0  0  0  0
    2.5177    2.3584   -0.5897 C   0  0  0  0  0  0  0  0  0  0  0  0
   -1.4548   -0.1659    0.6286 C   0  0  0  0  0  0  0  0  0  0  0  0
   -3.9310   -1.0756   -0.3622 C   0  0  0  0  0  0  0  0  0  0  0  0
    0.4725   -3.6589   -1.1400 C   0  0  0  0  0  0  0  0  0  0  0  0
    2.4593    3.3105   -1.7859 C   0  0  0  0  0  0  0  0  0  0  0  0
   -5.3441   -0.7437   -0.8459 C   0  0  0  0  0  0  0  0  0  0  0  0
   -3.7324    1.0227    1.2221 O   0  0  0  0  0  0  0  0  0  0  0  0
   -2.8955    1.2433   -1.0716 O   0  0  0  0  0  0  0  0  0  0  0  0
    1.2840   -1.4216   -0.7200 O   0  0  0  0  0  0  0  0  0  0  0  0
    2.1557    1.0417   -1.0109 O   0  0  0  0  0  0  0  0  0  0  0  0
   -3.0741    0.4558    0.0976 S   0  0  0  0  0  0  0  0  0  0  0  0
    2.0546   -0.2060    0.0016 P   0  0  0  0  0  0  0  0  0  0  0  0
    0.9861    0.3771    1.7372 S   0  0  0  0  0  0  0  0  0  0  0  0
    3.7689   -0.7558    0.4830 S   0  0  0  0  0  0  0  0  0  0  0  0
   -0.3681    1.6445    0.2021 H   0  0  0  0  0  0  0  0  0  0  0  0
   -1.0932    1.5876    1.8266 H   0  0  0  0  0  0  0  0  0  0  0  0
    0.8763   -2.7781    0.7841 H   0  0  0  0  0  0  0  0  0  0  0  0
    2.3282   -3.1226   -0.1862 H   0  0  0  0  0  0  0  0  0  0  0  0
    3.5297    2.3450   -0.1850 H   0  0  0  0  0  0  0  0  0  0  0  0
    1.8234    2.6977    0.1790 H   0  0  0  0  0  0  0  0  0  0  0  0
   -0.9779   -0.6909   -0.1991 H   0  0  0  0  0  0  0  0  0  0  0  0
   -1.5855   -0.8510    1.4663 H   0  0  0  0  0  0  0  0  0  0  0  0
    0.4853   -4.6799   -0.7583 H   0  0  0  0  0  0  0  0  0  0  0  0
   -0.5549   -3.2964   -1.1734 H   0  0  0  0  0  0  0  0  0  0  0  0
    0.8971   -3.6409   -2.1437 H   0  0  0  0  0  0  0  0  0  0  0  0
    2.7354    4.3149   -1.4646 H   0  0  0  0  0  0  0  0  0  0  0  0
    3.1535    2.9712   -2.5546 H   0  0  0  0  0  0  0  0  0  0  0  0
    1.4473    3.3239   -2.1906 H   0  0  0  0  0  0  0  0  0  0  0  0
   -3.9889   -1.7339    0.5046 H   0  0  0  0  0  0  0  0  0  0  0  0
   -3.3813   -1.5738   -1.1608 H   0  0  0  0  0  0  0  0  0  0  0  0
   -5.8938   -0.2455   -0.0473 H   0  0  0  0  0  0  0  0  0  0  0  0
   -5.2862   -0.0854   -1.7127 H   0  0  0  0  0  0  0  0  0  0  0  0
   -5.8590   -1.6639   -1.1222 H   0  0  0  0  0  0  0  0  0  0  0  0
 14 15  1  0  0  0  0
  1 15  1  0  0  0  0
 11 14  1  0  0  0  0
 12 14  1  0  0  0  0
 14 16  2  0  0  0  0
  2 11  1  0  0  0  0
  3 12  1  0  0  0  0
  1  4  1  0  0  0  0
  2  6  1  0  0  0  0
  3  7  1  0  0  0  0
  4 13  1  0  0  0  0
  5 13  1  0  0  0  0
  9 13  2  0  0  0  0
 10 13  2  0  0  0  0
  5  8  1  0  0  0  0
  1 17  1  0  0  0  0
  1 18  1  0  0  0  0
  2 19  1  0  0  0  0
  2 20  1  0  0  0  0
  3 21  1  0  0  0  0
  3 22  1  0  0  0  0
  4 23  1  0  0  0  0
  4 24  1  0  0  0  0
  6 25  1  0  0  0  0
  6 26  1  0  0  0  0
  6 27  1  0  0  0  0
  7 28  1  0  0  0  0
  7 29  1  0  0  0  0
  7 30  1  0  0  0  0
  5 31  1  0  0  0  0
  5 32  1  0  0  0  0
  8 33  1  0  0  0  0
  8 34  1  0  0  0  0
  8 35  1  0  0  0  0
M  END
$$$$
