C14H4N2O2S2
APtclcactv12091702553D 0   0.00000     0.00000
 
 24 26  0  0  0  0  0  0  0  0999 V2000
   -5.0618    0.6925   -0.0418 C   0  0  0  0  0  0  0  0  0  0  0  0
   -5.0627   -0.6881   -0.0374 C   0  0  0  0  0  0  0  0  0  0  0  0
   -3.8672   -1.3928   -0.0674 C   0  0  0  0  0  0  0  0  0  0  0  0
   -2.6648   -0.7032   -0.1022 C   0  0  0  0  0  0  0  0  0  0  0  0
   -2.6638    0.7043   -0.1062 C   0  0  0  0  0  0  0  0  0  0  0  0
   -3.8654    1.3955   -0.0763 C   0  0  0  0  0  0  0  0  0  0  0  0
   -1.3654    1.4061   -0.1417 C   0  0  0  0  0  0  0  0  0  0  0  0
   -1.3187    2.5831   -0.4423 O   0  0  0  0  0  0  0  0  0  0  0  0
   -0.1152    0.6739    0.1906 C   0  0  0  0  0  0  0  0  0  0  0  0
   -0.1156   -0.6756    0.1909 C   0  0  0  0  0  0  0  0  0  0  0  0
   -1.3675   -1.4071   -0.1367 C   0  0  0  0  0  0  0  0  0  0  0  0
   -1.3231   -2.5854   -0.4324 O   0  0  0  0  0  0  0  0  0  0  0  0
    1.2965   -1.6543    0.5588 S   0  0  0  0  0  0  0  0  0  0  0  0
    2.6738   -0.6699    0.1304 C   0  0  0  0  0  0  0  0  0  0  0  0
    2.6739    0.6695    0.1337 C   0  0  0  0  0  0  0  0  0  0  0  0
    1.2956    1.6514    0.5664 S   0  0  0  0  0  0  0  0  0  0  0  0
    3.8825    1.3399   -0.2412 C   0  0  0  0  0  0  0  0  0  0  0  0
    4.8413    1.8717   -0.5386 N   0  0  0  0  0  0  0  0  0  0  0  0
    3.8821   -1.3383   -0.2490 C   0  0  0  0  0  0  0  0  0  0  0  0
    4.8406   -1.8685   -0.5499 N   0  0  0  0  0  0  0  0  0  0  0  0
   -5.9988    1.2293   -0.0226 H   0  0  0  0  0  0  0  0  0  0  0  0
   -6.0002   -1.2236   -0.0101 H   0  0  0  0  0  0  0  0  0  0  0  0
   -3.8735   -2.4728   -0.0633 H   0  0  0  0  0  0  0  0  0  0  0  0
   -3.8705    2.4755   -0.0807 H   0  0  0  0  0  0  0  0  0  0  0  0
  1  2  2  0  0  0  0
  2  3  1  0  0  0  0
  3  4  2  0  0  0  0
  4  5  1  0  0  0  0
  5  6  2  0  0  0  0
  1  6  1  0  0  0  0
  5  7  1  0  0  0  0
  7  8  2  0  0  0  0
  7  9  1  0  0  0  0
  9 10  2  0  0  0  0
 10 11  1  0  0  0  0
  4 11  1  0  0  0  0
 11 12  2  0  0  0  0
 10 13  1  0  0  0  0
 13 14  1  0  0  0  0
 14 15  2  0  0  0  0
 15 16  1  0  0  0  0
  9 16  1  0  0  0  0
 15 17  1  0  0  0  0
 17 18  3  0  0  0  0
 14 19  1  0  0  0  0
 19 20  3  0  0  0  0
  1 21  1  0  0  0  0
  2 22  1  0  0  0  0
  3 23  1  0  0  0  0
  6 24  1  0  0  0  0
M  END
$$$$
