C9H10Cl2N2O
APtclcactv12151716443D 0   0.00000     0.00000
 
 24 24  0  0  0  0  0  0  0  0999 V2000
    0.5323   -1.0830    0.0211 C   0  0  0  0  0  0  0  0  0  0  0  0
   -0.1990    1.1762    0.3941 C   0  0  0  0  0  0  0  0  0  0  0  0
    1.1121    1.6070    0.3437 C   0  0  0  0  0  0  0  0  0  0  0  0
   -5.1728    0.7423   -0.3848 C   0  0  0  0  0  0  0  0  0  0  0  0
   -4.4224   -1.4758    0.5929 C   0  0  0  0  0  0  0  0  0  0  0  0
   -2.0303   -1.4840    0.6486 H   0  0  0  0  0  0  0  0  0  0  0  0
   -0.4931   -0.1715    0.2328 C   0  0  0  0  0  0  0  0  0  0  0  0
    1.8433   -0.6471   -0.0287 C   0  0  0  0  0  0  0  0  0  0  0  0
    2.1332    0.6973    0.1330 C   0  0  0  0  0  0  0  0  0  0  0  0
   -2.5416    1.2175   -0.7538 O   0  0  0  0  0  0  0  0  0  0  0  0
   -2.8107    0.1821   -0.1759 C   0  0  0  0  0  0  0  0  0  0  0  0
    3.1267   -1.7857   -0.2934 Cl  0  0  0  0  0  0  0  0  0  0  0  0
    3.7803    1.2422    0.0707 Cl  0  0  0  0  0  0  0  0  0  0  0  0
   -1.8216   -0.6101    0.2832 N   0  0  0  0  0  0  0  0  0  0  0  0
   -4.0980   -0.1735    0.0054 N   0  0  0  0  0  0  0  0  0  0  0  0
    0.3065   -2.1321   -0.1002 H   0  0  0  0  0  0  0  0  0  0  0  0
   -0.9952    1.8869    0.5593 H   0  0  0  0  0  0  0  0  0  0  0  0
   -5.4558    0.5504   -1.4198 H   0  0  0  0  0  0  0  0  0  0  0  0
   -6.0357    0.5867    0.2627 H   0  0  0  0  0  0  0  0  0  0  0  0
   -4.8266    1.7713   -0.2877 H   0  0  0  0  0  0  0  0  0  0  0  0
   -3.5068   -2.0514    0.7284 H   0  0  0  0  0  0  0  0  0  0  0  0
   -4.9054   -1.3284    1.5589 H   0  0  0  0  0  0  0  0  0  0  0  0
   -5.0964   -2.0163   -0.0717 H   0  0  0  0  0  0  0  0  0  0  0  0
    1.3407    2.6551    0.4688 H   0  0  0  0  0  0  0  0  0  0  0  0
 11 14  1  0  0  0  0
 11 15  1  0  0  0  0
 10 11  2  0  0  0  0
  7 14  1  0  0  0  0
  1  7  2  0  0  0  0
  2  7  1  0  0  0  0
  4 15  1  0  0  0  0
  5 15  1  0  0  0  0
  1  8  1  0  0  0  0
  2  3  2  0  0  0  0
  8 12  1  0  0  0  0
  8  9  2  0  0  0  0
  3  9  1  0  0  0  0
  9 13  1  0  0  0  0
  6 14  1  0  0  0  0
  1 16  1  0  0  0  0
  2 17  1  0  0  0  0
  4 18  1  0  0  0  0
  4 19  1  0  0  0  0
  4 20  1  0  0  0  0
  5 21  1  0  0  0  0
  5 22  1  0  0  0  0
  5 23  1  0  0  0  0
  3 24  1  0  0  0  0
M  END
$$$$
