C6H10O2S4
APtclcactv12211716563D 0   0.00000     0.00000
 
 22 21  0  0  0  0  0  0  0  0999 V2000
    3.6738   -1.0988   -0.2529 C   0  0  0  0  0  0  0  0  0  0  0  0
   -3.6738   -1.0988    0.2529 C   0  0  0  0  0  0  0  0  0  0  0  0
    4.9982   -1.3424    0.4734 C   0  0  0  0  0  0  0  0  0  0  0  0
   -4.9982   -1.3424   -0.4734 C   0  0  0  0  0  0  0  0  0  0  0  0
    1.7460    0.3039   -0.1037 C   0  0  0  0  0  0  0  0  0  0  0  0
   -1.7460    0.3039    0.1037 C   0  0  0  0  0  0  0  0  0  0  0  0
    2.9437   -0.0362    0.4152 O   0  0  0  0  0  0  0  0  0  0  0  0
   -2.9437   -0.0362   -0.4152 O   0  0  0  0  0  0  0  0  0  0  0  0
    0.8200    1.5470    0.6233 S   0  0  0  0  0  0  0  0  0  0  0  0
   -0.8200    1.5470   -0.6233 S   0  0  0  0  0  0  0  0  0  0  0  0
    1.1517   -0.5074   -1.4892 S   0  0  0  0  0  0  0  0  0  0  0  0
   -1.1517   -0.5074    1.4892 S   0  0  0  0  0  0  0  0  0  0  0  0
    3.8731   -0.8096   -1.2847 H   0  0  0  0  0  0  0  0  0  0  0  0
    3.0790   -2.0121   -0.2399 H   0  0  0  0  0  0  0  0  0  0  0  0
    5.5463   -2.1400   -0.0281 H   0  0  0  0  0  0  0  0  0  0  0  0
    5.5930   -0.4291    0.4604 H   0  0  0  0  0  0  0  0  0  0  0  0
    4.7989   -1.6316    1.5052 H   0  0  0  0  0  0  0  0  0  0  0  0
   -3.8731   -0.8096    1.2847 H   0  0  0  0  0  0  0  0  0  0  0  0
   -3.0790   -2.0121    0.2399 H   0  0  0  0  0  0  0  0  0  0  0  0
   -5.5463   -2.1400    0.0281 H   0  0  0  0  0  0  0  0  0  0  0  0
   -5.5930   -0.4291   -0.4604 H   0  0  0  0  0  0  0  0  0  0  0  0
   -4.7989   -1.6316   -1.5052 H   0  0  0  0  0  0  0  0  0  0  0  0
  5  9  1  0  0  0  0
  5  7  1  0  0  0  0
  5 11  2  0  0  0  0
  9 10  1  0  0  0  0
  1  7  1  0  0  0  0
  6 10  1  0  0  0  0
  1  3  1  0  0  0  0
  6  8  1  0  0  0  0
  6 12  2  0  0  0  0
  2  8  1  0  0  0  0
  2  4  1  0  0  0  0
  1 13  1  0  0  0  0
  1 14  1  0  0  0  0
  3 15  1  0  0  0  0
  3 16  1  0  0  0  0
  3 17  1  0  0  0  0
  2 18  1  0  0  0  0
  2 19  1  0  0  0  0
  4 20  1  0  0  0  0
  4 21  1  0  0  0  0
  4 22  1  0  0  0  0
M  END
$$$$
