C6H13NO2
APtclcactv12211716593D 0   0.00000     0.00000
 
 22 21  0  0  0  0  0  0  0  0999 V2000
   -0.4542    1.6966   -0.5734 N   0  0  0  0  0  0  0  0  0  0  0  0
   -0.4673    0.2340   -0.4370 C   0  0  0  0  0  0  0  0  0  0  0  0
    0.6039   -0.1941    0.5681 C   0  0  0  0  0  0  0  0  0  0  0  0
    1.9860    0.1872    0.0340 C   0  0  0  0  0  0  0  0  0  0  0  0
    3.0437   -0.1076    1.0995 C   0  0  0  0  0  0  0  0  0  0  0  0
    2.2890   -0.6281   -1.2248 C   0  0  0  0  0  0  0  0  0  0  0  0
   -1.8212   -0.2130    0.0509 C   0  0  0  0  0  0  0  0  0  0  0  0
   -2.5552    0.5737    0.6008 O   0  0  0  0  0  0  0  0  0  0  0  0
   -2.2119   -1.4850   -0.1254 O   0  0  0  0  0  0  0  0  0  0  0  0
   -1.1085    1.9998   -1.2791 H   0  0  0  0  0  0  0  0  0  0  0  0
   -0.6432    2.1439    0.3111 H   0  0  0  0  0  0  0  0  0  0  0  0
   -0.2608   -0.2230   -1.4048 H   0  0  0  0  0  0  0  0  0  0  0  0
    0.4308    0.3084    1.5197 H   0  0  0  0  0  0  0  0  0  0  0  0
    0.5555   -1.2734    0.7131 H   0  0  0  0  0  0  0  0  0  0  0  0
    2.0012    1.2497   -0.2089 H   0  0  0  0  0  0  0  0  0  0  0  0
    4.0328    0.1204    0.7024 H   0  0  0  0  0  0  0  0  0  0  0  0
    2.8546    0.5077    1.9791 H   0  0  0  0  0  0  0  0  0  0  0  0
    2.9971   -1.1609    1.3760 H   0  0  0  0  0  0  0  0  0  0  0  0
    1.5355   -0.4180   -1.9838 H   0  0  0  0  0  0  0  0  0  0  0  0
    3.2736   -0.3564   -1.6053 H   0  0  0  0  0  0  0  0  0  0  0  0
    2.2738   -1.6905   -0.9819 H   0  0  0  0  0  0  0  0  0  0  0  0
   -3.0887   -1.7247    0.2044 H   0  0  0  0  0  0  0  0  0  0  0  0
  1  2  1  0  0  0  0
  2  3  1  0  0  0  0
  3  4  1  0  0  0  0
  4  5  1  0  0  0  0
  4  6  1  0  0  0  0
  2  7  1  0  0  0  0
  7  8  2  0  0  0  0
  7  9  1  0  0  0  0
  1 10  1  0  0  0  0
  1 11  1  0  0  0  0
  2 12  1  0  0  0  0
  3 13  1  0  0  0  0
  3 14  1  0  0  0  0
  4 15  1  0  0  0  0
  5 16  1  0  0  0  0
  5 17  1  0  0  0  0
  5 18  1  0  0  0  0
  6 19  1  0  0  0  0
  6 20  1  0  0  0  0
  6 21  1  0  0  0  0
  9 22  1  0  0  0  0
M  END
$$$$
