C5H9NO2
APtclcactv12211716433D 0   0.00000     0.00000
 
 17 17  0  0  0  0  0  0  0  0999 V2000
    0.8141    0.9744    0.6700 N   0  0  0  0  0  0  0  0  0  0  0  0
   -0.0136   -0.2436    0.5980 C   0  0  0  0  0  0  0  0  0  0  0  0
   -1.3597    0.0856    0.0058 C   0  0  0  0  0  0  0  0  0  0  0  0
   -1.5090    1.1049   -0.6257 O   0  0  0  0  0  0  0  0  0  0  0  0
   -2.3929   -0.7534    0.1798 O   0  0  0  0  0  0  0  0  0  0  0  0
    0.7280   -1.2473   -0.3098 C   0  0  0  0  0  0  0  0  0  0  0  0
    2.1990   -0.7594   -0.2416 C   0  0  0  0  0  0  0  0  0  0  0  0
    2.0160    0.7771   -0.1681 C   0  0  0  0  0  0  0  0  0  0  0  0
    0.2927    1.7843    0.3694 H   0  0  0  0  0  0  0  0  0  0  0  0
   -0.1405   -0.6652    1.5951 H   0  0  0  0  0  0  0  0  0  0  0  0
   -3.2366   -0.4996   -0.2187 H   0  0  0  0  0  0  0  0  0  0  0  0
    0.6393   -2.2603    0.0828 H   0  0  0  0  0  0  0  0  0  0  0  0
    0.3513   -1.1944   -1.3312 H   0  0  0  0  0  0  0  0  0  0  0  0
    2.6946   -1.1368    0.6528 H   0  0  0  0  0  0  0  0  0  0  0  0
    2.7471   -1.0448   -1.1396 H   0  0  0  0  0  0  0  0  0  0  0  0
    1.8553    1.1882   -1.1647 H   0  0  0  0  0  0  0  0  0  0  0  0
    2.8847    1.2408    0.2991 H   0  0  0  0  0  0  0  0  0  0  0  0
  1  2  1  0  0  0  0
  2  3  1  0  0  0  0
  3  4  2  0  0  0  0
  3  5  1  0  0  0  0
  2  6  1  0  0  0  0
  6  7  1  0  0  0  0
  7  8  1  0  0  0  0
  1  8  1  0  0  0  0
  1  9  1  0  0  0  0
  2 10  1  0  0  0  0
  5 11  1  0  0  0  0
  6 12  1  0  0  0  0
  6 13  1  0  0  0  0
  7 14  1  0  0  0  0
  7 15  1  0  0  0  0
  8 16  1  0  0  0  0
  8 17  1  0  0  0  0
M  END
$$$$
