C24H34O4
APtclcactv12211717263D 0   0.00000     0.00000
 
 62 65  0  0  1  0  0  0  0  0999 V2000
    2.9243    0.1464   -0.0634 C   0  0  2  0  0  0  0  0  0  0  0  0
    1.4833   -0.1389   -0.4745 C   0  0  1  0  0  0  0  0  0  0  0  0
    0.6627    0.8597    0.3856 C   0  0  2  0  0  0  0  0  0  0  0  0
   -0.7408    0.8978   -0.1906 C   0  0  1  0  0  0  0  0  0  0  0  0
   -1.3524   -0.5006   -0.0002 C   0  0  1  0  0  0  0  0  0  0  0  0
   -2.7535   -0.5094   -0.6131 C   0  0  1  0  0  0  0  0  0  0  0  0
   -2.9907    1.9953   -0.0535 C   0  0  1  0  0  0  0  0  0  0  0  0
    1.2952    0.1789   -1.9593 C   0  0  0  0  0  0  0  0  0  0  0  0
    4.3614   -1.4829   -1.5101 C   0  0  0  0  0  0  0  0  0  0  0  0
    5.0349   -1.4206    2.6607 C   0  0  0  0  0  0  0  0  0  0  0  0
   -2.5843   -0.1679   -2.0948 C   0  0  0  0  0  0  0  0  0  0  0  0
   -3.8675    2.9438    0.7664 C   0  0  0  0  0  0  0  0  0  0  0  0
    4.1961    0.8301   -1.9246 O   0  0  0  0  0  0  0  0  0  0  0  0
    5.2423    0.3643    1.1366 O   0  0  0  0  0  0  0  0  0  0  0  0
   -6.4539   -1.1883    0.8353 O   0  0  0  0  0  0  0  0  0  0  0  0
    2.9463    1.6409    0.3434 C   0  0  0  0  0  0  0  0  0  0  0  0
    0.9568   -1.5288   -0.1725 C   0  0  0  0  0  0  0  0  0  0  0  0
    1.4817    2.1462    0.2339 C   0  0  0  0  0  0  0  0  0  0  0  0
   -0.4999   -1.5801   -0.6604 C   0  0  0  0  0  0  0  0  0  0  0  0
   -1.5819    1.9389    0.5484 C   0  0  0  0  0  0  0  0  0  0  0  0
   -3.3797   -1.8818   -0.5641 C   0  0  0  0  0  0  0  0  0  0  0  0
   -4.2406   -2.0825    0.6827 C   0  0  0  0  0  0  0  0  0  0  0  0
    3.8554   -0.0926   -1.2239 C   0  0  0  0  0  0  0  0  0  0  0  0
    4.5337   -0.5158    1.5648 C   0  0  0  0  0  0  0  0  0  0  0  0
    3.3001   -0.6875    1.0643 O   0  0  0  0  0  0  0  0  0  0  0  0
   -5.2672   -0.9660    0.7153 C   0  0  0  0  0  0  0  0  0  0  0  0
   -4.7403    0.4003    0.5925 C   0  0  0  0  0  0  0  0  0  0  0  0
   -3.5685    0.5907   -0.0078 C   0  0  0  0  0  0  0  0  0  0  0  0
    0.6364    0.5343    1.4255 H   0  0  0  0  0  0  0  0  0  0  0  0
   -0.6947    1.1363   -1.2531 H   0  0  0  0  0  0  0  0  0  0  0  0
   -1.4251   -0.7190    1.0653 H   0  0  0  0  0  0  0  0  0  0  0  0
    3.3021    1.7444    1.3685 H   0  0  0  0  0  0  0  0  0  0  0  0
    3.5879    2.2038   -0.3345 H   0  0  0  0  0  0  0  0  0  0  0  0
    1.5516   -2.2738   -0.7009 H   0  0  0  0  0  0  0  0  0  0  0  0
    0.9954   -1.7151    0.9008 H   0  0  0  0  0  0  0  0  0  0  0  0
    1.8950   -0.5078   -2.5566 H   0  0  0  0  0  0  0  0  0  0  0  0
    0.2437    0.0678   -2.2242 H   0  0  0  0  0  0  0  0  0  0  0  0
    1.6129    1.2031   -2.1547 H   0  0  0  0  0  0  0  0  0  0  0  0
    1.3036    2.6044   -0.7390 H   0  0  0  0  0  0  0  0  0  0  0  0
    1.2538    2.8456    1.0383 H   0  0  0  0  0  0  0  0  0  0  0  0
    3.6345   -2.0150   -2.1238 H   0  0  0  0  0  0  0  0  0  0  0  0
    5.3107   -1.4217   -2.0423 H   0  0  0  0  0  0  0  0  0  0  0  0
    4.5050   -2.0177   -0.5713 H   0  0  0  0  0  0  0  0  0  0  0  0
   -0.9196   -2.5582   -0.4254 H   0  0  0  0  0  0  0  0  0  0  0  0
   -0.5184   -1.4367   -1.7408 H   0  0  0  0  0  0  0  0  0  0  0  0
    4.2626   -2.1468    2.9140 H   0  0  0  0  0  0  0  0  0  0  0  0
    5.9281   -1.9441    2.3196 H   0  0  0  0  0  0  0  0  0  0  0  0
    5.2767   -0.8253    3.5413 H   0  0  0  0  0  0  0  0  0  0  0  0
   -1.6491    1.6683    1.6021 H   0  0  0  0  0  0  0  0  0  0  0  0
   -1.1097    2.9170    0.4567 H   0  0  0  0  0  0  0  0  0  0  0  0
   -2.9379    2.3407   -1.0860 H   0  0  0  0  0  0  0  0  0  0  0  0
   -4.0017   -2.0181   -1.4487 H   0  0  0  0  0  0  0  0  0  0  0  0
   -2.5886   -2.6316   -0.5716 H   0  0  0  0  0  0  0  0  0  0  0  0
   -1.9477   -0.9146   -2.5694 H   0  0  0  0  0  0  0  0  0  0  0  0
   -3.5603   -0.1613   -2.5800 H   0  0  0  0  0  0  0  0  0  0  0  0
   -2.1242    0.8156   -2.1907 H   0  0  0  0  0  0  0  0  0  0  0  0
   -3.4310    3.9426    0.7558 H   0  0  0  0  0  0  0  0  0  0  0  0
   -4.8673    2.9797    0.3338 H   0  0  0  0  0  0  0  0  0  0  0  0
   -3.9289    2.5851    1.7939 H   0  0  0  0  0  0  0  0  0  0  0  0
   -5.2972    1.2388    0.9841 H   0  0  0  0  0  0  0  0  0  0  0  0
   -4.7451   -3.0474    0.6324 H   0  0  0  0  0  0  0  0  0  0  0  0
   -3.6160   -2.0368    1.5748 H   0  0  0  0  0  0  0  0  0  0  0  0
  1  2  1  0  0  0  0
  1 16  1  0  0  0  0
  1 25  1  0  0  0  0
  1 23  1  0  0  0  0
  2  3  1  0  0  0  0
  2 17  1  0  0  0  0
  2  8  1  0  0  0  0
 16 18  1  0  0  0  0
 24 25  1  0  0  0  0
  9 23  1  0  0  0  0
 13 23  2  0  0  0  0
  3  4  1  0  0  0  0
 17 19  1  0  0  0  0
 10 24  1  0  0  0  0
 14 24  2  0  0  0  0
  4  5  1  0  0  0  0
  4 20  1  0  0  0  0
  5  6  1  0  0  0  0
  7 20  1  0  0  0  0
  6 28  1  0  0  0  0
  6 21  1  0  0  0  0
  6 11  1  0  0  0  0
  7 12  1  0  0  0  0
 27 28  2  0  0  0  0
 21 22  1  0  0  0  0
 26 27  1  0  0  0  0
 15 26  2  0  0  0  0
  3 18  1  0  0  0  0
  5 19  1  0  0  0  0
  7 28  1  0  0  0  0
 22 26  1  0  0  0  0
  3 29  1  0  0  0  0
  4 30  1  0  0  0  0
  5 31  1  0  0  0  0
 16 32  1  0  0  0  0
 16 33  1  0  0  0  0
 17 34  1  0  0  0  0
 17 35  1  0  0  0  0
  8 36  1  0  0  0  0
  8 37  1  0  0  0  0
  8 38  1  0  0  0  0
 18 39  1  0  0  0  0
 18 40  1  0  0  0  0
  9 41  1  0  0  0  0
  9 42  1  0  0  0  0
  9 43  1  0  0  0  0
 19 44  1  0  0  0  0
 19 45  1  0  0  0  0
 10 46  1  0  0  0  0
 10 47  1  0  0  0  0
 10 48  1  0  0  0  0
 20 49  1  0  0  0  0
 20 50  1  0  0  0  0
  7 51  1  0  0  0  0
 21 52  1  0  0  0  0
 21 53  1  0  0  0  0
 11 54  1  0  0  0  0
 11 55  1  0  0  0  0
 11 56  1  0  0  0  0
 12 57  1  0  0  0  0
 12 58  1  0  0  0  0
 12 59  1  0  0  0  0
 27 60  1  0  0  0  0
 22 61  1  0  0  0  0
 22 62  1  0  0  0  0
M  END
$$$$
