C15H30O3
APtclcactv12211717103D 0   0.00000     0.00000
 
 48 47  0  0  0  0  0  0  0  0999 V2000
   -5.8543    0.2887    0.0838 C   0  0  0  0  0  0  0  0  0  0  0  0
   -7.1289   -0.4803    0.3186 C   0  0  0  0  0  0  0  0  0  0  0  0
   -8.2502    0.3786    0.1021 O   0  0  0  0  0  0  0  0  0  0  0  0
   -7.1972   -1.6623   -0.6504 C   0  0  0  0  0  0  0  0  0  0  0  0
   -5.9013    1.4529   -0.2362 O   0  0  0  0  0  0  0  0  0  0  0  0
   -4.6667   -0.3182    0.2355 O   0  0  0  0  0  0  0  0  0  0  0  0
   -3.4808    0.4838   -0.0072 C   0  0  0  0  0  0  0  0  0  0  0  0
   -2.2322   -0.3725    0.2134 C   0  0  0  0  0  0  0  0  0  0  0  0
   -0.9826    0.4726   -0.0423 C   0  0  0  0  0  0  0  0  0  0  0  0
    0.2660   -0.3836    0.1783 C   0  0  0  0  0  0  0  0  0  0  0  0
    1.5156    0.4614   -0.0774 C   0  0  0  0  0  0  0  0  0  0  0  0
    2.7643   -0.3948    0.1431 C   0  0  0  0  0  0  0  0  0  0  0  0
    4.0138    0.4502   -0.1126 C   0  0  0  0  0  0  0  0  0  0  0  0
    5.2625   -0.4060    0.1080 C   0  0  0  0  0  0  0  0  0  0  0  0
    6.5120    0.4390   -0.1477 C   0  0  0  0  0  0  0  0  0  0  0  0
    7.7607   -0.4172    0.0728 C   0  0  0  0  0  0  0  0  0  0  0  0
    9.0102    0.4278   -0.1829 C   0  0  0  0  0  0  0  0  0  0  0  0
   10.2589   -0.4284    0.0377 C   0  0  0  0  0  0  0  0  0  0  0  0
   -7.1467   -0.8496    1.3440 H   0  0  0  0  0  0  0  0  0  0  0  0
   -9.1062   -0.0508    0.2358 H   0  0  0  0  0  0  0  0  0  0  0  0
   -7.1793   -1.2931   -1.6758 H   0  0  0  0  0  0  0  0  0  0  0  0
   -6.3419   -2.3175   -0.4852 H   0  0  0  0  0  0  0  0  0  0  0  0
   -8.1191   -2.2185   -0.4805 H   0  0  0  0  0  0  0  0  0  0  0  0
   -3.4936    0.8499   -1.0338 H   0  0  0  0  0  0  0  0  0  0  0  0
   -3.4674    1.3297    0.6801 H   0  0  0  0  0  0  0  0  0  0  0  0
   -2.2194   -0.7386    1.2400 H   0  0  0  0  0  0  0  0  0  0  0  0
   -2.2456   -1.2184   -0.4738 H   0  0  0  0  0  0  0  0  0  0  0  0
   -0.9954    0.8387   -1.0689 H   0  0  0  0  0  0  0  0  0  0  0  0
   -0.9691    1.3185    0.6450 H   0  0  0  0  0  0  0  0  0  0  0  0
    0.2788   -0.7497    1.2049 H   0  0  0  0  0  0  0  0  0  0  0  0
    0.2526   -1.2296   -0.5090 H   0  0  0  0  0  0  0  0  0  0  0  0
    1.5028    0.8275   -1.1040 H   0  0  0  0  0  0  0  0  0  0  0  0
    1.5291    1.3073    0.6098 H   0  0  0  0  0  0  0  0  0  0  0  0
    2.7771   -0.7609    1.1697 H   0  0  0  0  0  0  0  0  0  0  0  0
    2.7508   -1.2407   -0.5441 H   0  0  0  0  0  0  0  0  0  0  0  0
    4.0010    0.8163   -1.1392 H   0  0  0  0  0  0  0  0  0  0  0  0
    4.0273    1.2961    0.5747 H   0  0  0  0  0  0  0  0  0  0  0  0
    5.2753   -0.7721    1.1346 H   0  0  0  0  0  0  0  0  0  0  0  0
    5.2490   -1.2519   -0.5793 H   0  0  0  0  0  0  0  0  0  0  0  0
    6.4992    0.8051   -1.1743 H   0  0  0  0  0  0  0  0  0  0  0  0
    6.5255    1.2849    0.5395 H   0  0  0  0  0  0  0  0  0  0  0  0
    7.7735   -0.7833    1.0994 H   0  0  0  0  0  0  0  0  0  0  0  0
    7.7472   -1.2631   -0.6144 H   0  0  0  0  0  0  0  0  0  0  0  0
    8.9974    0.7939   -1.2095 H   0  0  0  0  0  0  0  0  0  0  0  0
    9.0237    1.2738    0.5044 H   0  0  0  0  0  0  0  0  0  0  0  0
   11.1491    0.1736   -0.1445 H   0  0  0  0  0  0  0  0  0  0  0  0
   10.2717   -0.7945    1.0643 H   0  0  0  0  0  0  0  0  0  0  0  0
   10.2454   -1.2743   -0.6496 H   0  0  0  0  0  0  0  0  0  0  0  0
  1  2  1  0  0  0  0
  2  3  1  0  0  0  0
  2  4  1  0  0  0  0
  1  5  2  0  0  0  0
  1  6  1  0  0  0  0
  6  7  1  0  0  0  0
  7  8  1  0  0  0  0
  8  9  1  0  0  0  0
  9 10  1  0  0  0  0
 10 11  1  0  0  0  0
 11 12  1  0  0  0  0
 12 13  1  0  0  0  0
 13 14  1  0  0  0  0
 14 15  1  0  0  0  0
 15 16  1  0  0  0  0
 16 17  1  0  0  0  0
 17 18  1  0  0  0  0
  2 19  1  0  0  0  0
  3 20  1  0  0  0  0
  4 21  1  0  0  0  0
  4 22  1  0  0  0  0
  4 23  1  0  0  0  0
  7 24  1  0  0  0  0
  7 25  1  0  0  0  0
  8 26  1  0  0  0  0
  8 27  1  0  0  0  0
  9 28  1  0  0  0  0
  9 29  1  0  0  0  0
 10 30  1  0  0  0  0
 10 31  1  0  0  0  0
 11 32  1  0  0  0  0
 11 33  1  0  0  0  0
 12 34  1  0  0  0  0
 12 35  1  0  0  0  0
 13 36  1  0  0  0  0
 13 37  1  0  0  0  0
 14 38  1  0  0  0  0
 14 39  1  0  0  0  0
 15 40  1  0  0  0  0
 15 41  1  0  0  0  0
 16 42  1  0  0  0  0
 16 43  1  0  0  0  0
 17 44  1  0  0  0  0
 17 45  1  0  0  0  0
 18 46  1  0  0  0  0
 18 47  1  0  0  0  0
 18 48  1  0  0  0  0
M  END
$$$$
