C10H14N4O4
APtclcactv12211717263D 0   0.00000     0.00000
 
 32 33  0  0  0  0  0  0  0  0999 V2000
   -0.5198    2.4276   -0.3575 C   0  0  0  0  0  0  0  0  0  0  0  0
   -2.1660    0.6401   -0.9939 C   0  0  0  0  0  0  0  0  0  0  0  0
   -4.3648   -0.2103   -0.1668 C   0  0  0  0  0  0  0  0  0  0  0  0
    3.6156    1.7181    0.6717 C   0  0  0  0  0  0  0  0  0  0  0  0
    2.1600   -2.8311   -0.2155 C   0  0  0  0  0  0  0  0  0  0  0  0
   -2.2087   -1.6884    0.2721 H   0  0  0  0  0  0  0  0  0  0  0  0
   -6.0419   -0.7793    0.8155 H   0  0  0  0  0  0  0  0  0  0  0  0
   -0.2704   -1.7942   -0.7520 O   0  0  0  0  0  0  0  0  0  0  0  0
    3.9104   -0.9356    0.4591 O   0  0  0  0  0  0  0  0  0  0  0  0
   -2.2895   -0.9173    0.8499 O   0  0  0  0  0  0  0  0  0  0  0  0
   -5.1309   -0.5130    1.0009 O   0  0  0  0  0  0  0  0  0  0  0  0
    0.5870   -0.9895   -0.4350 C   0  0  0  0  0  0  0  0  0  0  0  0
    2.7939   -0.5260    0.2054 C   0  0  0  0  0  0  0  0  0  0  0  0
    0.2835    0.3873   -0.3656 C   0  0  0  0  0  0  0  0  0  0  0  0
    1.2809    1.2828   -0.0008 C   0  0  0  0  0  0  0  0  0  0  0  0
   -2.9483    0.1966    0.2439 C   0  0  0  0  0  0  0  0  0  0  0  0
    0.7401    2.5038   -0.0120 N   0  0  0  0  0  0  0  0  0  0  0  0
    2.5461    0.7950    0.2840 N   0  0  0  0  0  0  0  0  0  0  0  0
    1.8382   -1.4036   -0.1455 N   0  0  0  0  0  0  0  0  0  0  0  0
   -0.8512    1.1420   -0.5868 N   0  0  0  0  0  0  0  0  0  0  0  0
   -2.0387   -0.2081   -1.6665 H   0  0  0  0  0  0  0  0  0  0  0  0
   -2.7140    1.4309   -1.5061 H   0  0  0  0  0  0  0  0  0  0  0  0
   -1.1933    3.2677   -0.4416 H   0  0  0  0  0  0  0  0  0  0  0  0
    3.6168    1.8384    1.7550 H   0  0  0  0  0  0  0  0  0  0  0  0
    4.5765    1.3166    0.3496 H   0  0  0  0  0  0  0  0  0  0  0  0
    3.4494    2.6860    0.1988 H   0  0  0  0  0  0  0  0  0  0  0  0
   -2.9989    1.0202    0.9561 H   0  0  0  0  0  0  0  0  0  0  0  0
    2.5040   -3.0772   -1.2201 H   0  0  0  0  0  0  0  0  0  0  0  0
    2.9452   -3.0623    0.5042 H   0  0  0  0  0  0  0  0  0  0  0  0
    1.2701   -3.4160    0.0173 H   0  0  0  0  0  0  0  0  0  0  0  0
   -4.3184   -1.0898   -0.8090 H   0  0  0  0  0  0  0  0  0  0  0  0
   -4.8361    0.6103   -0.7079 H   0  0  0  0  0  0  0  0  0  0  0  0
 14 15  2  0  0  0  0
 14 20  1  0  0  0  0
 12 14  1  0  0  0  0
 15 18  1  0  0  0  0
 15 17  1  0  0  0  0
  2 20  1  0  0  0  0
  1 20  1  0  0  0  0
 12 19  1  0  0  0  0
  8 12  2  0  0  0  0
 13 18  1  0  0  0  0
  4 18  1  0  0  0  0
  2 16  1  0  0  0  0
  5 19  1  0  0  0  0
  9 13  2  0  0  0  0
  3 16  1  0  0  0  0
 10 16  1  0  0  0  0
  3 11  1  0  0  0  0
  1 17  2  0  0  0  0
 13 19  1  0  0  0  0
  2 21  1  0  0  0  0
  2 22  1  0  0  0  0
  1 23  1  0  0  0  0
  4 24  1  0  0  0  0
  4 25  1  0  0  0  0
  4 26  1  0  0  0  0
 16 27  1  0  0  0  0
  5 28  1  0  0  0  0
  5 29  1  0  0  0  0
  5 30  1  0  0  0  0
  3 31  1  0  0  0  0
  3 32  1  0  0  0  0
  6 10  1  0  0  0  0
  7 11  1  0  0  0  0
M  END
$$$$
