C18H15Cl3N2O
APtclcactv12211717163D 0   0.00000     0.00000
 
 39 41  0  0  0  0  0  0  0  0999 V2000
    1.9174    1.3536   -0.7660 C   0  0  0  0  0  0  0  0  0  0  0  0
    4.3809    0.8032    0.3657 C   0  0  0  0  0  0  0  0  0  0  0  0
    2.9614    2.2474   -0.9151 C   0  0  0  0  0  0  0  0  0  0  0  0
   -1.2503   -2.8658   -1.2458 C   0  0  0  0  0  0  0  0  0  0  0  0
    0.1470   -3.9965    0.0032 C   0  0  0  0  0  0  0  0  0  0  0  0
   -1.8597   -3.9769   -0.7902 C   0  0  0  0  0  0  0  0  0  0  0  0
   -3.4656   -0.1782   -0.4905 C   0  0  0  0  0  0  0  0  0  0  0  0
   -2.8827    1.1987    1.3801 C   0  0  0  0  0  0  0  0  0  0  0  0
   -4.6167    0.5634   -0.6785 C   0  0  0  0  0  0  0  0  0  0  0  0
   -4.0335    1.9410    1.1931 C   0  0  0  0  0  0  0  0  0  0  0  0
    1.0573   -1.8661   -0.9717 C   0  0  0  0  0  0  0  0  0  0  0  0
   -1.3437   -0.6694    0.7428 C   0  0  0  0  0  0  0  0  0  0  0  0
    2.1039    0.1852   -0.0519 C   0  0  0  0  0  0  0  0  0  0  0  0
    3.3360   -0.0907    0.5144 C   0  0  0  0  0  0  0  0  0  0  0  0
    4.1936    1.9727   -0.3494 C   0  0  0  0  0  0  0  0  0  0  0  0
   -2.5987    0.1395    0.5384 C   0  0  0  0  0  0  0  0  0  0  0  0
   -4.9013    1.6238    0.1633 C   0  0  0  0  0  0  0  0  0  0  0  0
   -0.2772   -0.0934   -0.0139 O   0  0  0  0  0  0  0  0  0  0  0  0
    0.9652   -0.7884    0.1105 C   0  0  0  0  0  0  0  0  0  0  0  0
    3.5703   -1.5587    1.4110 Cl  0  0  0  0  0  0  0  0  0  0  0  0
    5.5043    3.0956   -0.5361 Cl  0  0  0  0  0  0  0  0  0  0  0  0
   -6.3466    2.5561   -0.0725 Cl  0  0  0  0  0  0  0  0  0  0  0  0
   -0.9827   -4.6490   -0.0297 N   0  0  0  0  0  0  0  0  0  0  0  0
    0.0227   -2.8777   -0.7428 N   0  0  0  0  0  0  0  0  0  0  0  0
    1.0236   -1.2551    1.0938 H   0  0  0  0  0  0  0  0  0  0  0  0
    0.9544    1.5705   -1.2041 H   0  0  0  0  0  0  0  0  0  0  0  0
    0.9101   -1.4110   -1.9511 H   0  0  0  0  0  0  0  0  0  0  0  0
    2.0400   -2.3363   -0.9335 H   0  0  0  0  0  0  0  0  0  0  0  0
    5.3428    0.5882    0.8072 H   0  0  0  0  0  0  0  0  0  0  0  0
    2.8152    3.1601   -1.4736 H   0  0  0  0  0  0  0  0  0  0  0  0
   -1.0800   -0.6698    1.8004 H   0  0  0  0  0  0  0  0  0  0  0  0
   -1.5134   -1.6935    0.4103 H   0  0  0  0  0  0  0  0  0  0  0  0
   -1.6816   -2.1125   -1.8883 H   0  0  0  0  0  0  0  0  0  0  0  0
    1.0343   -4.3008    0.5384 H   0  0  0  0  0  0  0  0  0  0  0  0
   -2.8764   -4.2746   -1.0000 H   0  0  0  0  0  0  0  0  0  0  0  0
   -3.2456   -1.0088   -1.1447 H   0  0  0  0  0  0  0  0  0  0  0  0
   -2.2050    1.4465    2.1837 H   0  0  0  0  0  0  0  0  0  0  0  0
   -5.2937    0.3153   -1.4825 H   0  0  0  0  0  0  0  0  0  0  0  0
   -4.2555    2.7683    1.8510 H   0  0  0  0  0  0  0  0  0  0  0  0
 13 19  1  0  0  0  0
 13 14  1  0  0  0  0
  1 13  2  0  0  0  0
 11 19  1  0  0  0  0
 18 19  1  0  0  0  0
  2 14  2  0  0  0  0
 14 20  1  0  0  0  0
  1  3  1  0  0  0  0
 11 24  1  0  0  0  0
 12 18  1  0  0  0  0
  2 15  1  0  0  0  0
  4 24  1  0  0  0  0
  5 24  1  0  0  0  0
 12 16  1  0  0  0  0
 15 21  1  0  0  0  0
  4  6  2  0  0  0  0
  5 23  2  0  0  0  0
  7 16  2  0  0  0  0
  8 16  1  0  0  0  0
  7  9  1  0  0  0  0
  8 10  2  0  0  0  0
  9 17  2  0  0  0  0
 17 22  1  0  0  0  0
  3 15  2  0  0  0  0
  6 23  1  0  0  0  0
 10 17  1  0  0  0  0
 19 25  1  0  0  0  0
  1 26  1  0  0  0  0
 11 27  1  0  0  0  0
 11 28  1  0  0  0  0
  2 29  1  0  0  0  0
  3 30  1  0  0  0  0
 12 31  1  0  0  0  0
 12 32  1  0  0  0  0
  4 33  1  0  0  0  0
  5 34  1  0  0  0  0
  6 35  1  0  0  0  0
  7 36  1  0  0  0  0
  8 37  1  0  0  0  0
  9 38  1  0  0  0  0
 10 39  1  0  0  0  0
M  END
$$$$
