C14H9ClF3NO2
APtclcactv12091702553D 0   0.00000     0.00000
 
 30 32  0  0  1  0  0  0  0  0999 V2000
    0.5789   -0.6400    0.0251 C   0  0  2  0  0  0  0  0  0  0  0  0
   -1.1908    1.1367    0.1378 C   0  0  0  0  0  0  0  0  0  0  0  0
   -3.0652   -0.5798   -0.9723 C   0  0  0  0  0  0  0  0  0  0  0  0
   -3.4255    0.7078   -0.6238 C   0  0  0  0  0  0  0  0  0  0  0  0
   -2.0371   -2.9638   -1.3762 H   0  0  0  0  0  0  0  0  0  0  0  0
   -2.4903    1.5660   -0.0721 C   0  0  0  0  0  0  0  0  0  0  0  0
    0.2713   -3.7806   -1.3294 O   0  0  0  0  0  0  0  0  0  0  0  0
    4.7118    2.1800   -0.2639 C   0  0  0  0  0  0  0  0  0  0  0  0
    4.1586    2.4319   -1.6679 C   0  0  0  0  0  0  0  0  0  0  0  0
    3.2239    2.4791   -0.4575 C   0  0  0  0  0  0  0  0  0  0  0  0
   -0.0622   -2.6277   -1.1397 C   0  0  0  0  0  0  0  0  0  0  0  0
   -0.8284   -0.1488   -0.2052 C   0  0  0  0  0  0  0  0  0  0  0  0
   -1.7625   -1.0098   -0.7683 C   0  0  0  0  0  0  0  0  0  0  0  0
   -2.9478    3.1843    0.3583 Cl  0  0  0  0  0  0  0  0  0  0  0  0
    0.8780   -1.6853   -0.9396 O   0  0  0  0  0  0  0  0  0  0  0  0
   -0.1956   -2.2621    1.6044 F   0  0  0  0  0  0  0  0  0  0  0  0
    2.0062   -1.6547    1.6556 F   0  0  0  0  0  0  0  0  0  0  0  0
    0.4013   -0.1937    2.3691 F   0  0  0  0  0  0  0  0  0  0  0  0
    0.7003   -1.1996    1.4439 C   0  0  0  0  0  0  0  0  0  0  0  0
    1.5244    0.4749   -0.1474 C   0  0  0  0  0  0  0  0  0  0  0  0
    2.2784    1.3642   -0.2850 C   0  0  0  0  0  0  0  0  0  0  0  0
   -1.3701   -2.3034   -1.1313 N   0  0  0  0  0  0  0  0  0  0  0  0
   -0.4623    1.8074    0.5690 H   0  0  0  0  0  0  0  0  0  0  0  0
   -3.7957   -1.2493   -1.4019 H   0  0  0  0  0  0  0  0  0  0  0  0
    2.8614    3.4564   -0.1389 H   0  0  0  0  0  0  0  0  0  0  0  0
   -4.4390    1.0453   -0.7825 H   0  0  0  0  0  0  0  0  0  0  0  0
    4.9906    1.1576   -0.0088 H   0  0  0  0  0  0  0  0  0  0  0  0
    5.3283    2.9607    0.1817 H   0  0  0  0  0  0  0  0  0  0  0  0
    4.4110    3.3784   -2.1460 H   0  0  0  0  0  0  0  0  0  0  0  0
    4.0733    1.5753   -2.3365 H   0  0  0  0  0  0  0  0  0  0  0  0
  1 12  1  0  0  0  0
  1 20  1  0  0  0  0
  1 15  1  0  0  0  0
  1 19  1  0  0  0  0
 12 13  2  0  0  0  0
  2 12  1  0  0  0  0
 20 21  3  0  0  0  0
 11 15  1  0  0  0  0
 16 19  1  0  0  0  0
 17 19  1  0  0  0  0
 18 19  1  0  0  0  0
 13 22  1  0  0  0  0
  3 13  1  0  0  0  0
  2  6  2  0  0  0  0
 10 21  1  0  0  0  0
  7 11  2  0  0  0  0
  3  4  2  0  0  0  0
  6 14  1  0  0  0  0
  8 10  1  0  0  0  0
  9 10  1  0  0  0  0
 11 22  1  0  0  0  0
  4  6  1  0  0  0  0
  8  9  1  0  0  0  0
  2 23  1  0  0  0  0
  5 22  1  0  0  0  0
  3 24  1  0  0  0  0
 10 25  1  0  0  0  0
  4 26  1  0  0  0  0
  8 27  1  0  0  0  0
  8 28  1  0  0  0  0
  9 29  1  0  0  0  0
  9 30  1  0  0  0  0
M  END
$$$$
