C14H6O8
APtclcactv12091702553D 0   0.00000     0.00000
 
 28 31  0  0  0  0  0  0  0  0999 V2000
    2.5644   -1.6563   -0.0546 C   0  0  0  0  0  0  0  0  0  0  0  0
   -2.5644    1.6563   -0.0548 C   0  0  0  0  0  0  0  0  0  0  0  0
    4.0920    2.0031    1.1085 H   0  0  0  0  0  0  0  0  0  0  0  0
   -4.0922   -2.0025    1.1085 H   0  0  0  0  0  0  0  0  0  0  0  0
    5.1516   -0.9285    0.9055 H   0  0  0  0  0  0  0  0  0  0  0  0
   -5.1513    0.9284    0.9060 H   0  0  0  0  0  0  0  0  0  0  0  0
    2.9580    0.7355    0.1298 C   0  0  0  0  0  0  0  0  0  0  0  0
   -2.9580   -0.7355    0.1293 C   0  0  0  0  0  0  0  0  0  0  0  0
    3.4288   -0.5747    0.0337 C   0  0  0  0  0  0  0  0  0  0  0  0
   -3.4288    0.5747    0.0335 C   0  0  0  0  0  0  0  0  0  0  0  0
    0.4527   -3.5541   -0.6783 O   0  0  0  0  0  0  0  0  0  0  0  0
   -0.4526    3.5541   -0.6785 O   0  0  0  0  0  0  0  0  0  0  0  0
    3.8379    1.7682    0.2055 O   0  0  0  0  0  0  0  0  0  0  0  0
   -3.8380   -1.7682    0.2054 O   0  0  0  0  0  0  0  0  0  0  0  0
    4.7701   -0.7972    0.0267 O   0  0  0  0  0  0  0  0  0  0  0  0
   -4.7701    0.7972    0.0271 O   0  0  0  0  0  0  0  0  0  0  0  0
    0.1733   -2.4809   -0.1789 C   0  0  0  0  0  0  0  0  0  0  0  0
   -0.1733    2.4808   -0.1790 C   0  0  0  0  0  0  0  0  0  0  0  0
    1.5896    0.9868    0.1470 C   0  0  0  0  0  0  0  0  0  0  0  0
    1.1944   -1.4296   -0.0533 C   0  0  0  0  0  0  0  0  0  0  0  0
   -1.5896   -0.9868    0.1470 C   0  0  0  0  0  0  0  0  0  0  0  0
   -1.1944    1.4295   -0.0534 C   0  0  0  0  0  0  0  0  0  0  0  0
    1.0821    2.2385    0.2682 O   0  0  0  0  0  0  0  0  0  0  0  0
   -1.0822   -2.2385    0.2683 O   0  0  0  0  0  0  0  0  0  0  0  0
    0.7267   -0.1024    0.0552 C   0  0  0  0  0  0  0  0  0  0  0  0
   -0.7267    0.1024    0.0552 C   0  0  0  0  0  0  0  0  0  0  0  0
    2.9522   -2.6616   -0.1279 H   0  0  0  0  0  0  0  0  0  0  0  0
   -2.9522    2.6619   -0.1241 H   0  0  0  0  0  0  0  0  0  0  0  0
 25 26  1  0  0  0  0
 19 25  1  0  0  0  0
 20 25  2  0  0  0  0
 21 26  2  0  0  0  0
 22 26  1  0  0  0  0
 19 23  1  0  0  0  0
  7 19  2  0  0  0  0
 17 20  1  0  0  0  0
  1 20  1  0  0  0  0
 21 24  1  0  0  0  0
  8 21  1  0  0  0  0
 18 22  1  0  0  0  0
  2 22  2  0  0  0  0
  7  9  1  0  0  0  0
  7 13  1  0  0  0  0
 11 17  2  0  0  0  0
  8 10  2  0  0  0  0
  8 14  1  0  0  0  0
 12 18  2  0  0  0  0
  9 15  1  0  0  0  0
 10 16  1  0  0  0  0
 18 23  1  0  0  0  0
 17 24  1  0  0  0  0
  1  9  2  0  0  0  0
  2 10  1  0  0  0  0
  1 27  1  0  0  0  0
  2 28  1  0  0  0  0
  3 13  1  0  0  0  0
  4 14  1  0  0  0  0
  5 15  1  0  0  0  0
  6 16  1  0  0  0  0
M  END
$$$$
