C8H10O5
APtclcactv12151716333D 0   0.00000     0.00000
 
 23 24  0  0  0  0  0  0  0  0999 V2000
    1.4849    1.3537    1.3485 O   0  0  0  0  0  0  0  0  0  0  0  0
   -2.0742    1.3496   -1.0099 O   0  0  0  0  0  0  0  0  0  0  0  0
    2.6325    1.5622   -0.5284 O   0  0  0  0  0  0  0  0  0  0  0  0
   -3.1280    0.4793    0.7266 O   0  0  0  0  0  0  0  0  0  0  0  0
    1.5524    1.1577    0.1582 C   0  0  0  0  0  0  0  0  0  0  0  0
   -2.0197    0.6853   -0.0021 C   0  0  0  0  0  0  0  0  0  0  0  0
    3.3305    2.0057   -0.0273 H   0  0  0  0  0  0  0  0  0  0  0  0
   -3.9460    0.8825    0.4052 H   0  0  0  0  0  0  0  0  0  0  0  0
    1.6620   -1.5875    0.0909 C   0  0  0  0  0  0  0  0  0  0  0  0
    0.5306   -1.9585    1.0833 C   0  0  0  0  0  0  0  0  0  0  0  0
    0.8843   -0.9307   -1.0889 C   0  0  0  0  0  0  0  0  0  0  0  0
   -0.7505   -1.4668    0.3452 C   0  0  0  0  0  0  0  0  0  0  0  0
    0.4239    0.4591   -0.5556 C   0  0  0  0  0  0  0  0  0  0  0  0
   -0.7075    0.0881    0.4368 C   0  0  0  0  0  0  0  0  0  0  0  0
   -0.3738   -1.6811   -1.0546 O   0  0  0  0  0  0  0  0  0  0  0  0
   -1.6831   -1.9284    0.6698 H   0  0  0  0  0  0  0  0  0  0  0  0
    1.3993   -0.9155   -2.0495 H   0  0  0  0  0  0  0  0  0  0  0  0
    0.0385    1.0759   -1.3675 H   0  0  0  0  0  0  0  0  0  0  0  0
   -0.4550    0.4086    1.4475 H   0  0  0  0  0  0  0  0  0  0  0  0
    2.3531   -0.8753    0.5418 H   0  0  0  0  0  0  0  0  0  0  0  0
    2.1899   -2.4803   -0.2442 H   0  0  0  0  0  0  0  0  0  0  0  0
    0.4948   -3.0361    1.2427 H   0  0  0  0  0  0  0  0  0  0  0  0
    0.6580   -1.4312    2.0287 H   0  0  0  0  0  0  0  0  0  0  0  0
 13 14  1  0  0  0  0
 11 13  1  0  0  0  0
  5 13  1  0  0  0  0
 12 14  1  0  0  0  0
  6 14  1  0  0  0  0
 11 15  1  0  0  0  0
  9 11  1  0  0  0  0
  3  5  1  0  0  0  0
  1  5  2  0  0  0  0
 10 12  1  0  0  0  0
  4  6  1  0  0  0  0
  2  6  2  0  0  0  0
 12 15  1  0  0  0  0
  9 10  1  0  0  0  0
 12 16  1  0  0  0  0
 11 17  1  0  0  0  0
 13 18  1  0  0  0  0
 14 19  1  0  0  0  0
  9 20  1  0  0  0  0
  9 21  1  0  0  0  0
  3  7  1  0  0  0  0
 10 22  1  0  0  0  0
 10 23  1  0  0  0  0
  4  8  1  0  0  0  0
M  END
$$$$
