C17H28N2O2
APtclcactv12211717153D 0   0.00000     0.00000
 
 49 50  0  0  1  0  0  0  0  0999 V2000
   -0.6729    0.3311    0.4425 C   0  0  1  0  0  0  0  0  0  0  0  0
    0.7309    0.4631   -0.1973 C   0  0  1  0  0  0  0  0  0  0  0  0
   -1.0733    1.8065    0.7627 C   0  0  1  0  0  0  0  0  0  0  0  0
    1.0006    2.0015   -0.1823 C   0  0  2  0  0  0  0  0  0  0  0  0
   -3.7092   -1.4795   -1.0213 C   0  0  0  0  0  0  0  0  0  0  0  0
   -3.2017   -0.6168    1.3104 C   0  0  0  0  0  0  0  0  0  0  0  0
    3.8605   -1.4826    0.8292 C   0  0  0  0  0  0  0  0  0  0  0  0
    3.2456   -0.2503   -1.3020 C   0  0  0  0  0  0  0  0  0  0  0  0
   -3.3713   -2.9717   -1.0234 C   0  0  0  0  0  0  0  0  0  0  0  0
   -4.1013    0.6123    1.4551 C   0  0  0  0  0  0  0  0  0  0  0  0
    3.5444   -2.9606    0.5916 C   0  0  0  0  0  0  0  0  0  0  0  0
    4.1796    0.9611   -1.2696 C   0  0  0  0  0  0  0  0  0  0  0  0
   -1.3701   -0.3277   -1.7139 O   0  0  0  0  0  0  0  0  0  0  0  0
    1.5437   -0.4962    1.7999 O   0  0  0  0  0  0  0  0  0  0  0  0
   -1.6443   -0.2816   -0.5333 C   0  0  0  0  0  0  0  0  0  0  0  0
    1.7604   -0.2633    0.6296 C   0  0  0  0  0  0  0  0  0  0  0  0
    0.3236    2.3951    1.1814 C   0  0  0  0  0  0  0  0  0  0  0  0
   -2.8177   -0.7782   -0.0942 N   0  0  0  0  0  0  0  0  0  0  0  0
    2.9218   -0.6540    0.0685 N   0  0  0  0  0  0  0  0  0  0  0  0
   -1.2285    2.4586   -0.6166 C   0  0  0  0  0  0  0  0  0  0  0  0
   -0.0336    2.5710   -1.1611 C   0  0  0  0  0  0  0  0  0  0  0  0
   -1.8924    1.9420    1.4690 H   0  0  0  0  0  0  0  0  0  0  0  0
    2.0341    2.3120   -0.3361 H   0  0  0  0  0  0  0  0  0  0  0  0
   -0.6232   -0.2597    1.3571 H   0  0  0  0  0  0  0  0  0  0  0  0
    0.7232    0.0853   -1.2197 H   0  0  0  0  0  0  0  0  0  0  0  0
    0.2927    3.4736    1.3363 H   0  0  0  0  0  0  0  0  0  0  0  0
    0.7602    1.8702    2.0311 H   0  0  0  0  0  0  0  0  0  0  0  0
   -2.1593    2.7723   -1.0657 H   0  0  0  0  0  0  0  0  0  0  0  0
    0.1809    2.9930   -2.1318 H   0  0  0  0  0  0  0  0  0  0  0  0
   -3.5792   -1.0761   -2.0255 H   0  0  0  0  0  0  0  0  0  0  0  0
   -4.7433   -1.3415   -0.7054 H   0  0  0  0  0  0  0  0  0  0  0  0
   -2.3069   -0.4857    1.9189 H   0  0  0  0  0  0  0  0  0  0  0  0
   -3.7412   -1.5033    1.6438 H   0  0  0  0  0  0  0  0  0  0  0  0
    3.7660   -1.2570    1.8913 H   0  0  0  0  0  0  0  0  0  0  0  0
    4.8787   -1.2717    0.5021 H   0  0  0  0  0  0  0  0  0  0  0  0
    2.3286    0.0120   -1.8297 H   0  0  0  0  0  0  0  0  0  0  0  0
    3.7380   -1.0751   -1.8171 H   0  0  0  0  0  0  0  0  0  0  0  0
   -4.0347   -3.4934   -1.7132 H   0  0  0  0  0  0  0  0  0  0  0  0
   -2.3373   -3.1096   -1.3393 H   0  0  0  0  0  0  0  0  0  0  0  0
   -3.5014   -3.3751   -0.0192 H   0  0  0  0  0  0  0  0  0  0  0  0
   -4.4056    0.7192    2.4963 H   0  0  0  0  0  0  0  0  0  0  0  0
   -3.5541    1.5019    1.1433 H   0  0  0  0  0  0  0  0  0  0  0  0
   -4.9852    0.4913    0.8289 H   0  0  0  0  0  0  0  0  0  0  0  0
    4.2428   -3.5771    1.1575 H   0  0  0  0  0  0  0  0  0  0  0  0
    2.5262   -3.1715    0.9186 H   0  0  0  0  0  0  0  0  0  0  0  0
    3.6389   -3.1862   -0.4706 H   0  0  0  0  0  0  0  0  0  0  0  0
    3.8188    1.6785   -0.5326 H   0  0  0  0  0  0  0  0  0  0  0  0
    5.1850    0.6376   -0.9998 H   0  0  0  0  0  0  0  0  0  0  0  0
    4.2006    1.4301   -2.2533 H   0  0  0  0  0  0  0  0  0  0  0  0
  1  2  1  0  0  0  0
  1  3  1  0  0  0  0
  1 15  1  0  0  0  0
  2  4  1  0  0  0  0
  2 16  1  0  0  0  0
  3 17  1  0  0  0  0
  3 20  1  0  0  0  0
 15 18  1  0  0  0  0
 13 15  2  0  0  0  0
  4 21  1  0  0  0  0
 16 19  1  0  0  0  0
 14 16  2  0  0  0  0
  5 18  1  0  0  0  0
  6 18  1  0  0  0  0
  7 19  1  0  0  0  0
  8 19  1  0  0  0  0
  5  9  1  0  0  0  0
  6 10  1  0  0  0  0
  7 11  1  0  0  0  0
  8 12  1  0  0  0  0
  4 17  1  0  0  0  0
 20 21  2  0  0  0  0
  3 22  1  0  0  0  0
  4 23  1  0  0  0  0
  1 24  1  0  0  0  0
  2 25  1  0  0  0  0
 17 26  1  0  0  0  0
 17 27  1  0  0  0  0
 20 28  1  0  0  0  0
 21 29  1  0  0  0  0
  5 30  1  0  0  0  0
  5 31  1  0  0  0  0
  6 32  1  0  0  0  0
  6 33  1  0  0  0  0
  7 34  1  0  0  0  0
  7 35  1  0  0  0  0
  8 36  1  0  0  0  0
  8 37  1  0  0  0  0
  9 38  1  0  0  0  0
  9 39  1  0  0  0  0
  9 40  1  0  0  0  0
 10 41  1  0  0  0  0
 10 42  1  0  0  0  0
 10 43  1  0  0  0  0
 11 44  1  0  0  0  0
 11 45  1  0  0  0  0
 11 46  1  0  0  0  0
 12 47  1  0  0  0  0
 12 48  1  0  0  0  0
 12 49  1  0  0  0  0
M  END
$$$$
