C18H18O2
APtclcactv12211717163D 0   0.00000     0.00000
 
 38 41  0  0  0  0  0  0  0  0999 V2000
    0.1510    2.0173   -0.2710 C   0  0  0  0  0  0  0  0  0  0  0  0
    1.4962    2.1054   -0.1007 C   0  0  0  0  0  0  0  0  0  0  0  0
    2.3754   -1.5058   -0.1317 C   0  0  0  0  0  0  0  0  0  0  0  0
    3.6557    0.9714    0.1048 C   0  0  0  0  0  0  0  0  0  0  0  0
    3.7244   -1.4304    0.0215 C   0  0  0  0  0  0  0  0  0  0  0  0
   -1.9772   -0.5758    1.5535 C   0  0  0  0  0  0  0  0  0  0  0  0
    6.0090   -0.1723    1.2148 H   0  0  0  0  0  0  0  0  0  0  0  0
    4.3670   -0.1940    0.1406 C   0  0  0  0  0  0  0  0  0  0  0  0
   -4.8219   -1.2126    0.0742 O   0  0  0  0  0  0  0  0  0  0  0  0
   -2.8010    1.8220    0.0925 C   0  0  0  0  0  0  0  0  0  0  0  0
   -1.9281   -1.7125   -0.6616 C   0  0  0  0  0  0  0  0  0  0  0  0
   -4.2046    1.1585    0.1761 C   0  0  0  0  0  0  0  0  0  0  0  0
   -0.4217   -1.7519   -0.3791 C   0  0  0  0  0  0  0  0  0  0  0  0
    5.7166   -0.1515    0.2933 O   0  0  0  0  0  0  0  0  0  0  0  0
   -3.9778   -0.3500    0.1140 C   0  0  0  0  0  0  0  0  0  0  0  0
   -0.4918    0.7845   -0.3927 C   0  0  0  0  0  0  0  0  0  0  0  0
    0.2084   -0.3856   -0.3263 C   0  0  0  0  0  0  0  0  0  0  0  0
   -1.9681    0.7384   -0.5977 C   0  0  0  0  0  0  0  0  0  0  0  0
   -2.4917   -0.5388    0.1131 C   0  0  0  0  0  0  0  0  0  0  0  0
    1.6118   -0.3246   -0.1713 C   0  0  0  0  0  0  0  0  0  0  0  0
    2.2603    0.9269   -0.0542 C   0  0  0  0  0  0  0  0  0  0  0  0
   -2.1956    0.6937   -1.6628 H   0  0  0  0  0  0  0  0  0  0  0  0
   -2.8359    2.7282   -0.5122 H   0  0  0  0  0  0  0  0  0  0  0  0
   -2.4124    2.0340    1.0886 H   0  0  0  0  0  0  0  0  0  0  0  0
   -0.4357    2.9232   -0.3086 H   0  0  0  0  0  0  0  0  0  0  0  0
   -2.1031   -1.5729   -1.7283 H   0  0  0  0  0  0  0  0  0  0  0  0
   -2.3941   -2.6387   -0.3251 H   0  0  0  0  0  0  0  0  0  0  0  0
   -2.3307    0.3057    2.0884 H   0  0  0  0  0  0  0  0  0  0  0  0
   -2.3471   -1.4738    2.0485 H   0  0  0  0  0  0  0  0  0  0  0  0
   -0.8872   -0.5857    1.5499 H   0  0  0  0  0  0  0  0  0  0  0  0
   -4.6882    1.4251    1.1159 H   0  0  0  0  0  0  0  0  0  0  0  0
   -4.8196    1.4787   -0.6649 H   0  0  0  0  0  0  0  0  0  0  0  0
   -0.2577   -2.2502    0.5764 H   0  0  0  0  0  0  0  0  0  0  0  0
    0.0662   -2.3325   -1.1621 H   0  0  0  0  0  0  0  0  0  0  0  0
    1.9726    3.0697   -0.0027 H   0  0  0  0  0  0  0  0  0  0  0  0
    1.8925   -2.4675   -0.2229 H   0  0  0  0  0  0  0  0  0  0  0  0
    4.1623    1.9207    0.1984 H   0  0  0  0  0  0  0  0  0  0  0  0
    4.3081   -2.3386    0.0520 H   0  0  0  0  0  0  0  0  0  0  0  0
 16 18  1  0  0  0  0
 18 19  1  0  0  0  0
 10 18  1  0  0  0  0
 16 17  1  0  0  0  0
  1 16  2  0  0  0  0
 11 19  1  0  0  0  0
 15 19  1  0  0  0  0
  6 19  1  0  0  0  0
 10 12  1  0  0  0  0
 17 20  2  0  0  0  0
 13 17  1  0  0  0  0
  1  2  1  0  0  0  0
  9 15  2  0  0  0  0
 20 21  1  0  0  0  0
  3 20  1  0  0  0  0
  4 21  1  0  0  0  0
  3  5  2  0  0  0  0
  4  8  2  0  0  0  0
  8 14  1  0  0  0  0
 11 13  1  0  0  0  0
 12 15  1  0  0  0  0
  2 21  2  0  0  0  0
  5  8  1  0  0  0  0
 18 22  1  0  0  0  0
 10 23  1  0  0  0  0
 10 24  1  0  0  0  0
  1 25  1  0  0  0  0
 11 26  1  0  0  0  0
 11 27  1  0  0  0  0
  6 28  1  0  0  0  0
  6 29  1  0  0  0  0
  6 30  1  0  0  0  0
 12 31  1  0  0  0  0
 12 32  1  0  0  0  0
 13 33  1  0  0  0  0
 13 34  1  0  0  0  0
  2 35  1  0  0  0  0
  3 36  1  0  0  0  0
  4 37  1  0  0  0  0
  5 38  1  0  0  0  0
  7 14  1  0  0  0  0
M  END
$$$$
