C18H22O2
APtclcactv12211717173D 0   0.00000     0.00000
 
 42 45  0  0  1  0  0  0  0  0999 V2000
    1.9601   -0.7172   -0.4735 C   0  0  1  0  0  0  0  0  0  0  0  0
    0.5123   -0.8106   -0.0359 C   0  0  1  0  0  0  0  0  0  0  0  0
    2.5388    0.5595    0.1982 C   0  0  2  0  0  0  0  0  0  0  0  0
   -0.2159    0.4012   -0.6317 C   0  0  2  0  0  0  0  0  0  0  0  0
   -2.4342    1.4840   -0.3829 C   0  0  0  0  0  0  0  0  0  0  0  0
   -3.6643   -0.9079    0.2160 C   0  0  0  0  0  0  0  0  0  0  0  0
   -3.7893    1.4603   -0.1311 C   0  0  0  0  0  0  0  0  0  0  0  0
    2.2011    0.5422    1.6903 C   0  0  0  0  0  0  0  0  0  0  0  0
   -5.9795    0.3446    1.3446 H   0  0  0  0  0  0  0  0  0  0  0  0
   -4.4110    0.2564    0.1686 C   0  0  0  0  0  0  0  0  0  0  0  0
    4.8379    1.2871   -0.0698 O   0  0  0  0  0  0  0  0  0  0  0  0
    2.8981   -1.7942    0.0863 C   0  0  0  0  0  0  0  0  0  0  0  0
   -0.1619   -2.0733   -0.5729 C   0  0  0  0  0  0  0  0  0  0  0  0
    1.8927    1.7661   -0.4483 C   0  0  0  0  0  0  0  0  0  0  0  0
    4.2854   -1.0985    0.0248 C   0  0  0  0  0  0  0  0  0  0  0  0
    0.3843    1.7102   -0.1397 C   0  0  0  0  0  0  0  0  0  0  0  0
   -1.5467   -2.1836    0.0637 C   0  0  0  0  0  0  0  0  0  0  0  0
   -5.7472    0.2209    0.4141 O   0  0  0  0  0  0  0  0  0  0  0  0
    4.0208    0.4039    0.0338 C   0  0  0  0  0  0  0  0  0  0  0  0
   -1.6857    0.3154   -0.3384 C   0  0  0  0  0  0  0  0  0  0  0  0
   -2.2983   -0.8820   -0.0320 C   0  0  0  0  0  0  0  0  0  0  0  0
    2.0326   -0.6544   -1.5593 H   0  0  0  0  0  0  0  0  0  0  0  0
    0.4534   -0.7778    1.0520 H   0  0  0  0  0  0  0  0  0  0  0  0
   -0.0872    0.3714   -1.7137 H   0  0  0  0  0  0  0  0  0  0  0  0
    2.6341   -2.0407    1.1147 H   0  0  0  0  0  0  0  0  0  0  0  0
    2.8836   -2.6847   -0.5422 H   0  0  0  0  0  0  0  0  0  0  0  0
   -0.2597   -2.0054   -1.6564 H   0  0  0  0  0  0  0  0  0  0  0  0
    0.4338   -2.9478   -0.3111 H   0  0  0  0  0  0  0  0  0  0  0  0
    2.3207    2.6799   -0.0359 H   0  0  0  0  0  0  0  0  0  0  0  0
    2.0507    1.7369   -1.5264 H   0  0  0  0  0  0  0  0  0  0  0  0
    2.5580   -0.3877    2.1329 H   0  0  0  0  0  0  0  0  0  0  0  0
    2.6835    1.3871    2.1818 H   0  0  0  0  0  0  0  0  0  0  0  0
    1.1212    0.6150    1.8193 H   0  0  0  0  0  0  0  0  0  0  0  0
    4.8819   -1.3777    0.8933 H   0  0  0  0  0  0  0  0  0  0  0  0
    4.8043   -1.3807   -0.8913 H   0  0  0  0  0  0  0  0  0  0  0  0
   -0.1149    2.5429   -0.6352 H   0  0  0  0  0  0  0  0  0  0  0  0
    0.2346    1.7918    0.9369 H   0  0  0  0  0  0  0  0  0  0  0  0
   -2.1137   -2.9615   -0.4477 H   0  0  0  0  0  0  0  0  0  0  0  0
   -1.4363   -2.4555    1.1134 H   0  0  0  0  0  0  0  0  0  0  0  0
   -1.9501    2.4205   -0.6173 H   0  0  0  0  0  0  0  0  0  0  0  0
   -4.1483   -1.8450    0.4483 H   0  0  0  0  0  0  0  0  0  0  0  0
   -4.3640    2.3739   -0.1668 H   0  0  0  0  0  0  0  0  0  0  0  0
  1  2  1  0  0  0  0
  1  3  1  0  0  0  0
  1 12  1  0  0  0  0
  2  4  1  0  0  0  0
  2 13  1  0  0  0  0
  3 14  1  0  0  0  0
  3 19  1  0  0  0  0
  3  8  1  0  0  0  0
 12 15  1  0  0  0  0
  4 20  1  0  0  0  0
  4 16  1  0  0  0  0
 13 17  1  0  0  0  0
 11 19  2  0  0  0  0
 20 21  2  0  0  0  0
  5 20  1  0  0  0  0
  6 21  1  0  0  0  0
  5  7  2  0  0  0  0
  6 10  2  0  0  0  0
 10 18  1  0  0  0  0
 14 16  1  0  0  0  0
 15 19  1  0  0  0  0
 17 21  1  0  0  0  0
  7 10  1  0  0  0  0
  1 22  1  0  0  0  0
  2 23  1  0  0  0  0
  4 24  1  0  0  0  0
 12 25  1  0  0  0  0
 12 26  1  0  0  0  0
 13 27  1  0  0  0  0
 13 28  1  0  0  0  0
 14 29  1  0  0  0  0
 14 30  1  0  0  0  0
  8 31  1  0  0  0  0
  8 32  1  0  0  0  0
  8 33  1  0  0  0  0
 15 34  1  0  0  0  0
 15 35  1  0  0  0  0
 16 36  1  0  0  0  0
 16 37  1  0  0  0  0
 17 38  1  0  0  0  0
 17 39  1  0  0  0  0
  5 40  1  0  0  0  0
  6 41  1  0  0  0  0
  7 42  1  0  0  0  0
  9 18  1  0  0  0  0
M  END
$$$$
