C13H14F3N3O4
APtclcactv12071713263D 0   0.00000     0.00000
 
 37 37  0  0  0  0  0  0  0  0999 V2000
    1.3596   -1.2202   -0.1928 C   0  0  0  0  0  0  0  0  0  0  0  0
    1.4977    1.1572    0.0809 C   0  0  0  0  0  0  0  0  0  0  0  0
   -2.6479    0.7495    0.7544 C   0  0  0  0  0  0  0  0  0  0  0  0
   -2.3489    1.0310   -1.6318 C   0  0  0  0  0  0  0  0  0  0  0  0
   -2.2084    0.1845   -2.8986 C   0  0  0  0  0  0  0  0  0  0  0  0
   -3.9805   -1.2682    1.7372 C   0  0  0  0  0  0  0  0  0  0  0  0
   -0.6293    0.1156   -0.2960 C   0  0  0  0  0  0  0  0  0  0  0  0
   -0.0089   -1.1259   -0.3526 C   0  0  0  0  0  0  0  0  0  0  0  0
    0.1296    1.2585   -0.0781 C   0  0  0  0  0  0  0  0  0  0  0  0
    2.1122   -0.0803    0.0235 C   0  0  0  0  0  0  0  0  0  0  0  0
   -0.2688   -3.4348   -0.6341 O   0  0  0  0  0  0  0  0  0  0  0  0
    0.1451    3.5915    0.1083 O   0  0  0  0  0  0  0  0  0  0  0  0
   -2.7863   -0.3498    1.7759 C   0  0  0  0  0  0  0  0  0  0  0  0
    4.2290   -0.0799   -1.0503 F   0  0  0  0  0  0  0  0  0  0  0  0
    4.0523    0.8427    1.0322 F   0  0  0  0  0  0  0  0  0  0  0  0
    3.9207   -1.4231    0.7718 F   0  0  0  0  0  0  0  0  0  0  0  0
   -2.0204   -2.2625   -0.7258 O   0  5  0  0  0  0  0  0  0  0  0  0
   -1.7402    2.6661   -0.0920 O   0  5  0  0  0  0  0  0  0  0  0  0
    3.6053   -0.1871    0.1974 C   0  0  0  0  0  0  0  0  0  0  0  0
   -2.0131    0.2146   -0.4576 N   0  0  0  0  0  0  0  0  0  0  0  0
   -0.8136   -2.3465   -0.5845 N   0  3  0  0  0  0  0  0  0  0  0  0
   -0.5273    2.5836   -0.0170 N   0  3  0  0  0  0  0  0  0  0  0  0
   -1.8686   -0.5070    2.6974 C   0  0  0  0  0  0  0  0  0  0  0  0
    1.8421   -2.1856   -0.2323 H   0  0  0  0  0  0  0  0  0  0  0  0
    2.0883    2.0454    0.2499 H   0  0  0  0  0  0  0  0  0  0  0  0
   -3.6344    1.1406    0.5055 H   0  0  0  0  0  0  0  0  0  0  0  0
   -2.0322    1.5504    1.1637 H   0  0  0  0  0  0  0  0  0  0  0  0
   -1.6718    1.8833   -1.6875 H   0  0  0  0  0  0  0  0  0  0  0  0
   -3.3753    1.3874   -1.5451 H   0  0  0  0  0  0  0  0  0  0  0  0
   -2.5422    0.7622   -3.7605 H   0  0  0  0  0  0  0  0  0  0  0  0
   -1.1643   -0.0980   -3.0328 H   0  0  0  0  0  0  0  0  0  0  0  0
   -2.8187   -0.7138   -2.8049 H   0  0  0  0  0  0  0  0  0  0  0  0
   -3.7259   -2.1722    1.1840 H   0  0  0  0  0  0  0  0  0  0  0  0
   -4.2677   -1.5337    2.7547 H   0  0  0  0  0  0  0  0  0  0  0  0
   -4.8116   -0.7631    1.2452 H   0  0  0  0  0  0  0  0  0  0  0  0
   -1.0128    0.1512    2.7251 H   0  0  0  0  0  0  0  0  0  0  0  0
   -1.9678   -1.2948    3.4294 H   0  0  0  0  0  0  0  0  0  0  0  0
  7  8  1  0  0  0  0
  7  9  2  0  0  0  0
  7 20  1  0  0  0  0
  1  8  2  0  0  0  0
  8 21  1  0  0  0  0
  2  9  1  0  0  0  0
  9 22  1  0  0  0  0
  3 20  1  0  0  0  0
  4 20  1  0  0  0  0
  1 10  1  0  0  0  0
 11 21  2  0  0  0  0
 17 21  1  0  0  0  0
 12 22  2  0  0  0  0
 18 22  1  0  0  0  0
  3 13  1  0  0  0  0
  4  5  1  0  0  0  0
 10 19  1  0  0  0  0
  6 13  1  0  0  0  0
 13 23  2  0  0  0  0
 14 19  1  0  0  0  0
 15 19  1  0  0  0  0
 16 19  1  0  0  0  0
  2 10  2  0  0  0  0
  1 24  1  0  0  0  0
  2 25  1  0  0  0  0
  3 26  1  0  0  0  0
  3 27  1  0  0  0  0
  4 28  1  0  0  0  0
  4 29  1  0  0  0  0
  5 30  1  0  0  0  0
  5 31  1  0  0  0  0
  5 32  1  0  0  0  0
  6 33  1  0  0  0  0
  6 34  1  0  0  0  0
  6 35  1  0  0  0  0
 23 36  1  0  0  0  0
 23 37  1  0  0  0  0
M  CHG  4  17  -1  18  -1  21   1  22   1
M  END
$$$$
