C9H22O4P2S4
APtclcactv12151716543D 0   0.00000     0.00000
 
 41 40  0  0  0  0  0  0  0  0999 V2000
   -0.2166    1.5070    0.5879 C   0  0  0  0  0  0  0  0  0  0  0  0
    2.6733    2.8776    0.1810 C   0  0  0  0  0  0  0  0  0  0  0  0
    3.1881   -2.3669   -0.0406 C   0  0  0  0  0  0  0  0  0  0  0  0
   -1.1831   -2.5996    0.3052 C   0  0  0  0  0  0  0  0  0  0  0  0
   -4.1302    1.7734    0.2723 C   0  0  0  0  0  0  0  0  0  0  0  0
    3.7306    3.9827    0.2253 C   0  0  0  0  0  0  0  0  0  0  0  0
    4.3145   -3.2824    0.4434 C   0  0  0  0  0  0  0  0  0  0  0  0
   -0.6880   -3.4598    1.4696 C   0  0  0  0  0  0  0  0  0  0  0  0
   -5.1812    2.2776    1.2633 C   0  0  0  0  0  0  0  0  0  0  0  0
    3.3179    1.6028    0.1465 O   0  0  0  0  0  0  0  0  0  0  0  0
    3.4865   -1.0155    0.3154 O   0  0  0  0  0  0  0  0  0  0  0  0
   -1.9027   -1.4756    0.8158 O   0  0  0  0  0  0  0  0  0  0  0  0
   -3.6094    0.5222    0.7256 O   0  0  0  0  0  0  0  0  0  0  0  0
    2.5156    0.2192   -0.0381 P   0  0  0  0  0  0  0  0  0  0  0  0
   -2.5674   -0.3562   -0.1315 P   0  0  0  0  0  0  0  0  0  0  0  0
    0.8403    0.1951    1.2607 S   0  0  0  0  0  0  0  0  0  0  0  0
   -1.0500    0.9052   -0.9067 S   0  0  0  0  0  0  0  0  0  0  0  0
    1.9358    0.0680   -1.8027 S   0  0  0  0  0  0  0  0  0  0  0  0
   -3.4644   -1.1859   -1.5385 S   0  0  0  0  0  0  0  0  0  0  0  0
   -0.9623    1.7897    1.3309 H   0  0  0  0  0  0  0  0  0  0  0  0
    0.3949    2.3742    0.3387 H   0  0  0  0  0  0  0  0  0  0  0  0
    2.0429    2.9421    1.0679 H   0  0  0  0  0  0  0  0  0  0  0  0
    2.0588    2.9983   -0.7112 H   0  0  0  0  0  0  0  0  0  0  0  0
    3.0962   -2.4455   -1.1239 H   0  0  0  0  0  0  0  0  0  0  0  0
    2.2501   -2.6670    0.4264 H   0  0  0  0  0  0  0  0  0  0  0  0
    4.3451    3.8620    1.1175 H   0  0  0  0  0  0  0  0  0  0  0  0
    4.3610    3.9182   -0.6615 H   0  0  0  0  0  0  0  0  0  0  0  0
    3.2389    4.9551    0.2517 H   0  0  0  0  0  0  0  0  0  0  0  0
    5.2526   -2.9823   -0.0235 H   0  0  0  0  0  0  0  0  0  0  0  0
    4.4064   -3.2038    1.5267 H   0  0  0  0  0  0  0  0  0  0  0  0
    4.0869   -4.3132    0.1719 H   0  0  0  0  0  0  0  0  0  0  0  0
   -0.3303   -2.2510   -0.2772 H   0  0  0  0  0  0  0  0  0  0  0  0
   -1.8397   -3.1929   -0.3312 H   0  0  0  0  0  0  0  0  0  0  0  0
   -4.5884    1.6425   -0.7080 H   0  0  0  0  0  0  0  0  0  0  0  0
   -3.3204    2.4995    0.2008 H   0  0  0  0  0  0  0  0  0  0  0  0
   -0.0314   -2.8666    2.1061 H   0  0  0  0  0  0  0  0  0  0  0  0
   -1.5408   -3.8085    2.0521 H   0  0  0  0  0  0  0  0  0  0  0  0
   -0.1390   -4.3172    1.0802 H   0  0  0  0  0  0  0  0  0  0  0  0
   -5.5783    3.2319    0.9175 H   0  0  0  0  0  0  0  0  0  0  0  0
   -5.9910    1.5515    1.3348 H   0  0  0  0  0  0  0  0  0  0  0  0
   -4.7229    2.4085    2.2436 H   0  0  0  0  0  0  0  0  0  0  0  0
 14 16  1  0  0  0  0
  1 16  1  0  0  0  0
 10 14  1  0  0  0  0
 11 14  1  0  0  0  0
 14 18  2  0  0  0  0
  2 10  1  0  0  0  0
  3 11  1  0  0  0  0
  1 17  1  0  0  0  0
  2  6  1  0  0  0  0
  3  7  1  0  0  0  0
 15 17  1  0  0  0  0
 12 15  1  0  0  0  0
 13 15  1  0  0  0  0
 15 19  2  0  0  0  0
  4 12  1  0  0  0  0
  5 13  1  0  0  0  0
  4  8  1  0  0  0  0
  5  9  1  0  0  0  0
  1 20  1  0  0  0  0
  1 21  1  0  0  0  0
  2 22  1  0  0  0  0
  2 23  1  0  0  0  0
  3 24  1  0  0  0  0
  3 25  1  0  0  0  0
  6 26  1  0  0  0  0
  6 27  1  0  0  0  0
  6 28  1  0  0  0  0
  7 29  1  0  0  0  0
  7 30  1  0  0  0  0
  7 31  1  0  0  0  0
  4 32  1  0  0  0  0
  4 33  1  0  0  0  0
  5 34  1  0  0  0  0
  5 35  1  0  0  0  0
  8 36  1  0  0  0  0
  8 37  1  0  0  0  0
  8 38  1  0  0  0  0
  9 39  1  0  0  0  0
  9 40  1  0  0  0  0
  9 41  1  0  0  0  0
M  END
$$$$
