C11H15NO2S
APtclcactv12211717343D 0   0.00000     0.00000
 
 30 30  0  0  0  0  0  0  0  0999 V2000
    0.1232    2.4818   -0.8380 C   0  0  0  0  0  0  0  0  0  0  0  0
    2.0862    1.5820    0.8939 C   0  0  0  0  0  0  0  0  0  0  0  0
    1.1222    3.3392   -0.4160 C   0  0  0  0  0  0  0  0  0  0  0  0
    2.1028    2.8895    0.4490 C   0  0  0  0  0  0  0  0  0  0  0  0
   -0.9861    0.2384   -0.8574 C   0  0  0  0  0  0  0  0  0  0  0  0
   -3.5737   -0.8453   -0.4194 C   0  0  0  0  0  0  0  0  0  0  0  0
   -4.8326   -0.8867    0.4491 C   0  0  0  0  0  0  0  0  0  0  0  0
    2.1620   -3.8050   -0.4480 C   0  0  0  0  0  0  0  0  0  0  0  0
    1.0737   -3.0757    1.2229 H   0  0  0  0  0  0  0  0  0  0  0  0
    0.1025    1.1728   -0.3962 C   0  0  0  0  0  0  0  0  0  0  0  0
    1.0850    0.7193    0.4714 C   0  0  0  0  0  0  0  0  0  0  0  0
    2.2248   -1.1467   -0.8961 O   0  0  0  0  0  0  0  0  0  0  0  0
    1.6338   -1.4922    0.1078 C   0  0  0  0  0  0  0  0  0  0  0  0
    1.0670   -0.5682    0.9072 O   0  0  0  0  0  0  0  0  0  0  0  0
    1.5454   -2.7999    0.4215 N   0  0  0  0  0  0  0  0  0  0  0  0
   -2.3868    0.3279    0.2917 S   0  0  0  0  0  0  0  0  0  0  0  0
   -0.6441    2.8366   -1.5101 H   0  0  0  0  0  0  0  0  0  0  0  0
   -1.3156    0.5286   -1.8551 H   0  0  0  0  0  0  0  0  0  0  0  0
   -0.6024   -0.7815   -0.8839 H   0  0  0  0  0  0  0  0  0  0  0  0
    2.8525    1.2311    1.5692 H   0  0  0  0  0  0  0  0  0  0  0  0
    1.1369    4.3619   -0.7628 H   0  0  0  0  0  0  0  0  0  0  0  0
    2.8822    3.5612    0.7773 H   0  0  0  0  0  0  0  0  0  0  0  0
   -3.1252   -1.8381   -0.4568 H   0  0  0  0  0  0  0  0  0  0  0  0
   -3.8384   -0.5279   -1.4280 H   0  0  0  0  0  0  0  0  0  0  0  0
   -5.2810    0.1060    0.4865 H   0  0  0  0  0  0  0  0  0  0  0  0
   -5.5458   -1.5917    0.0218 H   0  0  0  0  0  0  0  0  0  0  0  0
   -4.5679   -1.2041    1.4577 H   0  0  0  0  0  0  0  0  0  0  0  0
    3.2345   -3.6214   -0.5119 H   0  0  0  0  0  0  0  0  0  0  0  0
    1.9874   -4.7987   -0.0353 H   0  0  0  0  0  0  0  0  0  0  0  0
    1.7227   -3.7428   -1.4436 H   0  0  0  0  0  0  0  0  0  0  0  0
 10 11  2  0  0  0  0
  1 10  1  0  0  0  0
  5 10  1  0  0  0  0
  2 11  1  0  0  0  0
 11 14  1  0  0  0  0
  1  3  2  0  0  0  0
  5 16  1  0  0  0  0
  2  4  2  0  0  0  0
 13 14  1  0  0  0  0
  6 16  1  0  0  0  0
 13 15  1  0  0  0  0
 12 13  2  0  0  0  0
  6  7  1  0  0  0  0
  8 15  1  0  0  0  0
  3  4  1  0  0  0  0
  1 17  1  0  0  0  0
  5 18  1  0  0  0  0
  5 19  1  0  0  0  0
  2 20  1  0  0  0  0
  3 21  1  0  0  0  0
  4 22  1  0  0  0  0
  6 23  1  0  0  0  0
  6 24  1  0  0  0  0
  9 15  1  0  0  0  0
  7 25  1  0  0  0  0
  7 26  1  0  0  0  0
  7 27  1  0  0  0  0
  8 28  1  0  0  0  0
  8 29  1  0  0  0  0
  8 30  1  0  0  0  0
M  END
$$$$
