C7H11NO2
APtclcactv12151716203D 0   0.00000     0.00000
 
 21 21  0  0  0  0  0  0  0  0999 V2000
    1.4702    0.8751   -0.9255 C   0  0  0  0  0  0  0  0  0  0  0  0
    1.1016    0.8762    1.5641 C   0  0  0  0  0  0  0  0  0  0  0  0
    2.7526    0.0566   -0.7632 C   0  0  0  0  0  0  0  0  0  0  0  0
   -1.6542   -1.8990   -0.1150 H   0  0  0  0  0  0  0  0  0  0  0  0
    0.8896   -1.8658    0.2615 O   0  0  0  0  0  0  0  0  0  0  0  0
   -3.0362    0.2600   -0.3198 O   0  0  0  0  0  0  0  0  0  0  0  0
   -0.8478    1.2555    0.0033 C   0  0  0  0  0  0  0  0  0  0  0  0
    0.1190   -0.9369    0.1474 C   0  0  0  0  0  0  0  0  0  0  0  0
   -1.8443    0.1262   -0.1437 C   0  0  0  0  0  0  0  0  0  0  0  0
    0.4970    0.5272    0.2027 C   0  0  0  0  0  0  0  0  0  0  0  0
   -1.2011   -1.0440   -0.0480 N   0  0  0  0  0  0  0  0  0  0  0  0
   -0.8235    1.8656   -0.8996 H   0  0  0  0  0  0  0  0  0  0  0  0
   -1.0861    1.8664    0.8740 H   0  0  0  0  0  0  0  0  0  0  0  0
    1.7096    1.9377   -0.8840 H   0  0  0  0  0  0  0  0  0  0  0  0
    1.0104    0.6435   -1.8862 H   0  0  0  0  0  0  0  0  0  0  0  0
    2.0022    0.2833    1.7245 H   0  0  0  0  0  0  0  0  0  0  0  0
    1.3553    1.9360    1.5881 H   0  0  0  0  0  0  0  0  0  0  0  0
    0.3783    0.6578    2.3497 H   0  0  0  0  0  0  0  0  0  0  0  0
    3.2124    0.2882    0.1976 H   0  0  0  0  0  0  0  0  0  0  0  0
    2.5132   -1.0060   -0.8047 H   0  0  0  0  0  0  0  0  0  0  0  0
    3.4460    0.3045   -1.5669 H   0  0  0  0  0  0  0  0  0  0  0  0
  8 10  1  0  0  0  0
  7 10  1  0  0  0  0
  1 10  1  0  0  0  0
  2 10  1  0  0  0  0
  8 11  1  0  0  0  0
  5  8  2  0  0  0  0
  7  9  1  0  0  0  0
  1  3  1  0  0  0  0
  6  9  2  0  0  0  0
  9 11  1  0  0  0  0
  7 12  1  0  0  0  0
  7 13  1  0  0  0  0
  1 14  1  0  0  0  0
  1 15  1  0  0  0  0
  2 16  1  0  0  0  0
  2 17  1  0  0  0  0
  2 18  1  0  0  0  0
  4 11  1  0  0  0  0
  3 19  1  0  0  0  0
  3 20  1  0  0  0  0
  3 21  1  0  0  0  0
M  END
$$$$
