C6H9ClO3
APtclcactv12211716553D 0   0.00000     0.00000
 
 19 18  0  0  0  0  0  0  0  0999 V2000
   -1.4034   -1.7802    0.2253 Cl  0  0  0  0  0  0  0  0  0  0  0  0
   -0.7338   -0.1379    0.5502 C   0  0  0  0  0  0  0  0  0  0  0  0
    0.5439    0.0464   -0.2274 C   0  0  0  0  0  0  0  0  0  0  0  0
    0.5031    0.2396   -1.4194 O   0  0  0  0  0  0  0  0  0  0  0  0
    1.7272   -0.0039    0.4043 O   0  0  0  0  0  0  0  0  0  0  0  0
    2.9164    0.1821   -0.4078 C   0  0  0  0  0  0  0  0  0  0  0  0
    4.1593    0.0926    0.4800 C   0  0  0  0  0  0  0  0  0  0  0  0
   -1.7349    0.9056    0.1262 C   0  0  0  0  0  0  0  0  0  0  0  0
   -2.5534    0.6473   -0.7233 O   0  0  0  0  0  0  0  0  0  0  0  0
   -1.7147    2.2717    0.7623 C   0  0  0  0  0  0  0  0  0  0  0  0
   -0.5291   -0.0333    1.6156 H   0  0  0  0  0  0  0  0  0  0  0  0
    2.9593   -0.5936   -1.1723 H   0  0  0  0  0  0  0  0  0  0  0  0
    2.8807    1.1613   -0.8853 H   0  0  0  0  0  0  0  0  0  0  0  0
    4.1164    0.8683    1.2445 H   0  0  0  0  0  0  0  0  0  0  0  0
    4.1949   -0.8866    0.9574 H   0  0  0  0  0  0  0  0  0  0  0  0
    5.0520    0.2322   -0.1297 H   0  0  0  0  0  0  0  0  0  0  0  0
   -0.9135    2.3171    1.5000 H   0  0  0  0  0  0  0  0  0  0  0  0
   -1.5455    3.0272   -0.0049 H   0  0  0  0  0  0  0  0  0  0  0  0
   -2.6704    2.4587    1.2519 H   0  0  0  0  0  0  0  0  0  0  0  0
  1  2  1  0  0  0  0
  2  3  1  0  0  0  0
  3  4  2  0  0  0  0
  3  5  1  0  0  0  0
  5  6  1  0  0  0  0
  6  7  1  0  0  0  0
  2  8  1  0  0  0  0
  8  9  2  0  0  0  0
  8 10  1  0  0  0  0
  2 11  1  0  0  0  0
  6 12  1  0  0  0  0
  6 13  1  0  0  0  0
  7 14  1  0  0  0  0
  7 15  1  0  0  0  0
  7 16  1  0  0  0  0
 10 17  1  0  0  0  0
 10 18  1  0  0  0  0
 10 19  1  0  0  0  0
M  END
$$$$
