C11H12O4
APtclcactv12211717333D 0   0.00000     0.00000
 
 27 27  0  0  0  0  0  0  0  0999 V2000
    1.7664   -1.7424   -0.2488 C   0  0  0  0  0  0  0  0  0  0  0  0
    2.1521   -3.1675    0.0536 C   0  0  0  0  0  0  0  0  0  0  0  0
    1.6365   -1.3818   -1.3947 O   0  0  0  0  0  0  0  0  0  0  0  0
    1.5616   -0.8746    0.7556 O   0  0  0  0  0  0  0  0  0  0  0  0
    1.3099    0.4146    0.4143 C   0  0  0  0  0  0  0  0  0  0  0  0
   -0.0022    0.8281    0.1440 C   0  0  0  0  0  0  0  0  0  0  0  0
   -1.1156   -0.1348    0.2290 C   0  0  0  0  0  0  0  0  0  0  0  0
   -0.8974   -1.2905    0.5340 O   0  0  0  0  0  0  0  0  0  0  0  0
   -2.3752    0.2669   -0.0315 O   0  0  0  0  0  0  0  0  0  0  0  0
   -3.4212   -0.7349    0.0716 C   0  0  0  0  0  0  0  0  0  0  0  0
   -4.7724   -0.0970   -0.2575 C   0  0  0  0  0  0  0  0  0  0  0  0
   -0.2486    2.1579   -0.2059 C   0  0  0  0  0  0  0  0  0  0  0  0
    0.7967    3.0532   -0.2831 C   0  0  0  0  0  0  0  0  0  0  0  0
    2.0913    2.6405   -0.0153 C   0  0  0  0  0  0  0  0  0  0  0  0
    2.3482    1.3297    0.3369 C   0  0  0  0  0  0  0  0  0  0  0  0
    3.2383   -3.2486    0.0965 H   0  0  0  0  0  0  0  0  0  0  0  0
    1.7275   -3.4630    1.0130 H   0  0  0  0  0  0  0  0  0  0  0  0
    1.7696   -3.8215   -0.7300 H   0  0  0  0  0  0  0  0  0  0  0  0
   -3.2204   -1.5435   -0.6312 H   0  0  0  0  0  0  0  0  0  0  0  0
   -3.4446   -1.1327    1.0861 H   0  0  0  0  0  0  0  0  0  0  0  0
   -4.7490    0.3007   -1.2720 H   0  0  0  0  0  0  0  0  0  0  0  0
   -5.5576   -0.8491   -0.1800 H   0  0  0  0  0  0  0  0  0  0  0  0
   -4.9732    0.7116    0.4453 H   0  0  0  0  0  0  0  0  0  0  0  0
   -1.2566    2.4840   -0.4158 H   0  0  0  0  0  0  0  0  0  0  0  0
    0.6053    4.0810   -0.5540 H   0  0  0  0  0  0  0  0  0  0  0  0
    2.9043    3.3485   -0.0786 H   0  0  0  0  0  0  0  0  0  0  0  0
    3.3605    1.0156    0.5442 H   0  0  0  0  0  0  0  0  0  0  0  0
  1  2  1  0  0  0  0
  1  3  2  0  0  0  0
  1  4  1  0  0  0  0
  4  5  1  0  0  0  0
  5  6  1  0  0  0  0
  6  7  1  0  0  0  0
  7  8  2  0  0  0  0
  7  9  1  0  0  0  0
  9 10  1  0  0  0  0
 10 11  1  0  0  0  0
  6 12  2  0  0  0  0
 12 13  1  0  0  0  0
 13 14  2  0  0  0  0
 14 15  1  0  0  0  0
  5 15  2  0  0  0  0
  2 16  1  0  0  0  0
  2 17  1  0  0  0  0
  2 18  1  0  0  0  0
 10 19  1  0  0  0  0
 10 20  1  0  0  0  0
 11 21  1  0  0  0  0
 11 22  1  0  0  0  0
 11 23  1  0  0  0  0
 12 24  1  0  0  0  0
 13 25  1  0  0  0  0
 14 26  1  0  0  0  0
 15 27  1  0  0  0  0
M  END
$$$$
