C9H10O3
APtclcactv12151716453D 0   0.00000     0.00000
 
 22 22  0  0  0  0  0  0  0  0999 V2000
   -3.5391    0.0011    0.0067 C   0  0  0  0  0  0  0  0  0  0  0  0
   -4.4149   -1.2534    0.0047 C   0  0  0  0  0  0  0  0  0  0  0  0
   -2.1396   -0.3855    0.0002 O   0  0  0  0  0  0  0  0  0  0  0  0
   -1.2302    0.6088    0.0010 C   0  0  0  0  0  0  0  0  0  0  0  0
   -1.5967    1.7673    0.0069 O   0  0  0  0  0  0  0  0  0  0  0  0
    0.2098    0.2910   -0.0054 C   0  0  0  0  0  0  0  0  0  0  0  0
    1.1549    1.3211   -0.0046 C   0  0  0  0  0  0  0  0  0  0  0  0
    2.4984    1.0200   -0.0106 C   0  0  0  0  0  0  0  0  0  0  0  0
    2.9155   -0.3060   -0.0174 C   0  0  0  0  0  0  0  0  0  0  0  0
    4.2406   -0.5985   -0.0233 O   0  0  0  0  0  0  0  0  0  0  0  0
    1.9790   -1.3334   -0.0178 C   0  0  0  0  0  0  0  0  0  0  0  0
    0.6336   -1.0411   -0.0065 C   0  0  0  0  0  0  0  0  0  0  0  0
   -3.7557    0.5968   -0.8802 H   0  0  0  0  0  0  0  0  0  0  0  0
   -3.7494    0.5896    0.8998 H   0  0  0  0  0  0  0  0  0  0  0  0
   -5.4655   -0.9632    0.0096 H   0  0  0  0  0  0  0  0  0  0  0  0
   -4.2047   -1.8419   -0.8884 H   0  0  0  0  0  0  0  0  0  0  0  0
   -4.1984   -1.8490    0.8916 H   0  0  0  0  0  0  0  0  0  0  0  0
    0.8317    2.3516    0.0004 H   0  0  0  0  0  0  0  0  0  0  0  0
    3.2292    1.8152   -0.0103 H   0  0  0  0  0  0  0  0  0  0  0  0
    4.6278   -0.6868    0.8584 H   0  0  0  0  0  0  0  0  0  0  0  0
    2.3073   -2.3623   -0.0228 H   0  0  0  0  0  0  0  0  0  0  0  0
   -0.0933   -1.8398   -0.0064 H   0  0  0  0  0  0  0  0  0  0  0  0
  1  2  1  0  0  0  0
  1  3  1  0  0  0  0
  3  4  1  0  0  0  0
  4  5  2  0  0  0  0
  4  6  1  0  0  0  0
  6  7  2  0  0  0  0
  7  8  1  0  0  0  0
  8  9  2  0  0  0  0
  9 10  1  0  0  0  0
  9 11  1  0  0  0  0
 11 12  2  0  0  0  0
  6 12  1  0  0  0  0
  1 13  1  0  0  0  0
  1 14  1  0  0  0  0
  2 15  1  0  0  0  0
  2 16  1  0  0  0  0
  2 17  1  0  0  0  0
  7 18  1  0  0  0  0
  8 19  1  0  0  0  0
 10 20  1  0  0  0  0
 11 21  1  0  0  0  0
 12 22  1  0  0  0  0
M  END
$$$$
