C11H14O2
APtclcactv12211717343D 0   0.00000     0.00000
 
 27 27  0  0  0  0  0  0  0  0999 V2000
    1.9263    0.0381    0.2761 C   0  0  0  0  0  0  0  0  0  0  0  0
    0.5198   -0.0300   -0.2607 C   0  0  0  0  0  0  0  0  0  0  0  0
   -0.4741    0.1127    0.8937 C   0  0  0  0  0  0  0  0  0  0  0  0
   -1.8806    0.0446    0.3569 C   0  0  0  0  0  0  0  0  0  0  0  0
   -2.5246   -1.1746    0.2585 C   0  0  0  0  0  0  0  0  0  0  0  0
   -3.8147   -1.2371   -0.2340 C   0  0  0  0  0  0  0  0  0  0  0  0
   -4.4611   -0.0803   -0.6276 C   0  0  0  0  0  0  0  0  0  0  0  0
   -3.8174    1.1390   -0.5284 C   0  0  0  0  0  0  0  0  0  0  0  0
   -2.5288    1.2020   -0.0319 C   0  0  0  0  0  0  0  0  0  0  0  0
    2.1144    0.1857    1.4605 O   0  0  0  0  0  0  0  0  0  0  0  0
    2.9701   -0.0707   -0.5608 O   0  0  0  0  0  0  0  0  0  0  0  0
    4.2961    0.0039    0.0261 C   0  0  0  0  0  0  0  0  0  0  0  0
    5.3496   -0.1389   -1.0743 C   0  0  0  0  0  0  0  0  0  0  0  0
    0.3644    0.7777   -0.9759 H   0  0  0  0  0  0  0  0  0  0  0  0
    0.3661   -0.9887   -0.7561 H   0  0  0  0  0  0  0  0  0  0  0  0
   -0.3187   -0.6950    1.6089 H   0  0  0  0  0  0  0  0  0  0  0  0
   -0.3203    1.0714    1.3891 H   0  0  0  0  0  0  0  0  0  0  0  0
   -2.0196   -2.0784    0.5660 H   0  0  0  0  0  0  0  0  0  0  0  0
   -4.3176   -2.1897   -0.3115 H   0  0  0  0  0  0  0  0  0  0  0  0
   -5.4688   -0.1292   -1.0131 H   0  0  0  0  0  0  0  0  0  0  0  0
   -4.3223    2.0428   -0.8363 H   0  0  0  0  0  0  0  0  0  0  0  0
   -2.0260    2.1546    0.0456 H   0  0  0  0  0  0  0  0  0  0  0  0
    4.4193    0.9655    0.5244 H   0  0  0  0  0  0  0  0  0  0  0  0
    4.4179   -0.7999    0.7522 H   0  0  0  0  0  0  0  0  0  0  0  0
    5.2279    0.6649   -1.8003 H   0  0  0  0  0  0  0  0  0  0  0  0
    6.3450   -0.0829   -0.6337 H   0  0  0  0  0  0  0  0  0  0  0  0
    5.2264   -1.1004   -1.5726 H   0  0  0  0  0  0  0  0  0  0  0  0
  1  2  1  0  0  0  0
  2  3  1  0  0  0  0
  3  4  1  0  0  0  0
  4  5  2  0  0  0  0
  5  6  1  0  0  0  0
  6  7  2  0  0  0  0
  7  8  1  0  0  0  0
  8  9  2  0  0  0  0
  4  9  1  0  0  0  0
  1 10  2  0  0  0  0
  1 11  1  0  0  0  0
 11 12  1  0  0  0  0
 12 13  1  0  0  0  0
  2 14  1  0  0  0  0
  2 15  1  0  0  0  0
  3 16  1  0  0  0  0
  3 17  1  0  0  0  0
  5 18  1  0  0  0  0
  6 19  1  0  0  0  0
  7 20  1  0  0  0  0
  8 21  1  0  0  0  0
  9 22  1  0  0  0  0
 12 23  1  0  0  0  0
 12 24  1  0  0  0  0
 13 25  1  0  0  0  0
 13 26  1  0  0  0  0
 13 27  1  0  0  0  0
M  END
$$$$
