C8H16O2
APtclcactv12151716363D 0   0.00000     0.00000
 
 26 25  0  0  0  0  0  0  0  0999 V2000
    1.1344    0.1327   -0.0032 C   0  0  0  0  0  0  0  0  0  0  0  0
   -0.1478   -0.6591   -0.0037 C   0  0  0  0  0  0  0  0  0  0  0  0
   -1.3397    0.3002   -0.0004 C   0  0  0  0  0  0  0  0  0  0  0  0
   -2.6415   -0.5037   -0.0009 C   0  0  0  0  0  0  0  0  0  0  0  0
   -3.8333    0.4557    0.0023 C   0  0  0  0  0  0  0  0  0  0  0  0
   -5.1351   -0.3482    0.0019 C   0  0  0  0  0  0  0  0  0  0  0  0
    1.0986    1.3404   -0.0005 O   0  0  0  0  0  0  0  0  0  0  0  0
    2.3162   -0.5037   -0.0001 O   0  0  0  0  0  0  0  0  0  0  0  0
    3.5100    0.3228    0.0001 C   0  0  0  0  0  0  0  0  0  0  0  0
    4.7504   -0.5729    0.0038 C   0  0  0  0  0  0  0  0  0  0  0  0
   -0.1878   -1.2853   -0.8950 H   0  0  0  0  0  0  0  0  0  0  0  0
   -0.1861   -1.2892    0.8850 H   0  0  0  0  0  0  0  0  0  0  0  0
   -1.2996    0.9264    0.8909 H   0  0  0  0  0  0  0  0  0  0  0  0
   -1.3014    0.9302   -0.8891 H   0  0  0  0  0  0  0  0  0  0  0  0
   -2.6815   -1.1298   -0.8922 H   0  0  0  0  0  0  0  0  0  0  0  0
   -2.6797   -1.1337    0.8878 H   0  0  0  0  0  0  0  0  0  0  0  0
   -3.7933    1.0818    0.8936 H   0  0  0  0  0  0  0  0  0  0  0  0
   -3.7950    1.0857   -0.8863 H   0  0  0  0  0  0  0  0  0  0  0  0
   -5.1751   -0.9744   -0.8894 H   0  0  0  0  0  0  0  0  0  0  0  0
   -5.1734   -0.9783    0.8905 H   0  0  0  0  0  0  0  0  0  0  0  0
   -5.9842    0.3352    0.0042 H   0  0  0  0  0  0  0  0  0  0  0  0
    3.5176    0.9504   -0.8910 H   0  0  0  0  0  0  0  0  0  0  0  0
    3.5149    0.9538    0.8889 H   0  0  0  0  0  0  0  0  0  0  0  0
    4.7428   -1.2005    0.8949 H   0  0  0  0  0  0  0  0  0  0  0  0
    4.7456   -1.2039   -0.8850 H   0  0  0  0  0  0  0  0  0  0  0  0
    5.6466    0.0476    0.0040 H   0  0  0  0  0  0  0  0  0  0  0  0
  1  2  1  0  0  0  0
  2  3  1  0  0  0  0
  3  4  1  0  0  0  0
  4  5  1  0  0  0  0
  5  6  1  0  0  0  0
  1  7  2  0  0  0  0
  1  8  1  0  0  0  0
  8  9  1  0  0  0  0
  9 10  1  0  0  0  0
  2 11  1  0  0  0  0
  2 12  1  0  0  0  0
  3 13  1  0  0  0  0
  3 14  1  0  0  0  0
  4 15  1  0  0  0  0
  4 16  1  0  0  0  0
  5 17  1  0  0  0  0
  5 18  1  0  0  0  0
  6 19  1  0  0  0  0
  6 20  1  0  0  0  0
  6 21  1  0  0  0  0
  9 22  1  0  0  0  0
  9 23  1  0  0  0  0
 10 24  1  0  0  0  0
 10 25  1  0  0  0  0
 10 26  1  0  0  0  0
M  END
$$$$
