C7H8N2O4
APtclcactv12151716183D 0   0.00000     0.00000
 
 21 21  0  0  0  0  0  0  0  0999 V2000
    1.3307    0.7061   -0.0027 C   0  0  0  0  0  0  0  0  0  0  0  0
   -0.1004    0.3193   -0.0008 C   0  0  0  0  0  0  0  0  0  0  0  0
   -1.0682    1.2729    0.0006 C   0  0  0  0  0  0  0  0  0  0  0  0
   -2.4720    0.8429    0.0018 C   0  0  0  0  0  0  0  0  0  0  0  0
   -3.3707    1.6632    0.0027 O   0  0  0  0  0  0  0  0  0  0  0  0
   -2.7480   -0.4777    0.0015 N   0  0  0  0  0  0  0  0  0  0  0  0
   -1.7525   -1.3814    0.0001 C   0  0  0  0  0  0  0  0  0  0  0  0
   -2.0283   -2.5656   -0.0001 O   0  0  0  0  0  0  0  0  0  0  0  0
   -0.4613   -1.0110   -0.0063 N   0  0  0  0  0  0  0  0  0  0  0  0
    1.6423    1.8794   -0.0029 O   0  0  0  0  0  0  0  0  0  0  0  0
    2.2851   -0.2442    0.0015 O   0  0  0  0  0  0  0  0  0  0  0  0
    3.6650    0.2075   -0.0006 C   0  0  0  0  0  0  0  0  0  0  0  0
    4.5985   -1.0048    0.0048 C   0  0  0  0  0  0  0  0  0  0  0  0
   -0.8111    2.3219    0.0011 H   0  0  0  0  0  0  0  0  0  0  0  0
   -3.6706   -0.7772    0.0027 H   0  0  0  0  0  0  0  0  0  0  0  0
    0.2296   -1.6919   -0.0075 H   0  0  0  0  0  0  0  0  0  0  0  0
    3.8505    0.8048   -0.8933 H   0  0  0  0  0  0  0  0  0  0  0  0
    3.8506    0.8128    0.8867 H   0  0  0  0  0  0  0  0  0  0  0  0
    4.4130   -1.6022    0.8975 H   0  0  0  0  0  0  0  0  0  0  0  0
    4.4129   -1.6101   -0.8825 H   0  0  0  0  0  0  0  0  0  0  0  0
    5.6344   -0.6657    0.0032 H   0  0  0  0  0  0  0  0  0  0  0  0
  1  2  1  0  0  0  0
  2  3  2  0  0  0  0
  3  4  1  0  0  0  0
  4  5  2  0  0  0  0
  4  6  1  0  0  0  0
  6  7  1  0  0  0  0
  7  8  2  0  0  0  0
  7  9  1  0  0  0  0
  2  9  1  0  0  0  0
  1 10  2  0  0  0  0
  1 11  1  0  0  0  0
 11 12  1  0  0  0  0
 12 13  1  0  0  0  0
  3 14  1  0  0  0  0
  6 15  1  0  0  0  0
  9 16  1  0  0  0  0
 12 17  1  0  0  0  0
 12 18  1  0  0  0  0
 13 19  1  0  0  0  0
 13 20  1  0  0  0  0
 13 21  1  0  0  0  0
M  END
$$$$
