C5H8O2
APtclcactv12211716433D 0   0.00000     0.00000
 
 15 14  0  0  0  0  0  0  0  0999 V2000
   -0.5647    0.0732   -0.0022 C   0  0  0  0  0  0  0  0  0  0  0  0
   -1.7652   -0.7743   -0.0013 C   0  0  0  0  0  0  0  0  0  0  0  0
   -2.9734   -0.2165    0.0021 C   0  0  0  0  0  0  0  0  0  0  0  0
   -0.6752    1.2835    0.0002 O   0  0  0  0  0  0  0  0  0  0  0  0
    0.6592   -0.4918   -0.0000 O   0  0  0  0  0  0  0  0  0  0  0  0
    1.8000    0.4065   -0.0010 C   0  0  0  0  0  0  0  0  0  0  0  0
    3.0931   -0.4113    0.0017 C   0  0  0  0  0  0  0  0  0  0  0  0
   -1.6669   -1.8498   -0.0035 H   0  0  0  0  0  0  0  0  0  0  0  0
   -3.8558   -0.8393    0.0027 H   0  0  0  0  0  0  0  0  0  0  0  0
   -3.0717    0.8590    0.0042 H   0  0  0  0  0  0  0  0  0  0  0  0
    1.7682    1.0331   -0.8924 H   0  0  0  0  0  0  0  0  0  0  0  0
    1.7668    1.0369    0.8876 H   0  0  0  0  0  0  0  0  0  0  0  0
    3.9495    0.2631    0.0009 H   0  0  0  0  0  0  0  0  0  0  0  0
    3.1248   -1.0379    0.8930 H   0  0  0  0  0  0  0  0  0  0  0  0
    3.1262   -1.0416   -0.8869 H   0  0  0  0  0  0  0  0  0  0  0  0
  1  2  1  0  0  0  0
  2  3  2  0  0  0  0
  1  4  2  0  0  0  0
  1  5  1  0  0  0  0
  5  6  1  0  0  0  0
  6  7  1  0  0  0  0
  2  8  1  0  0  0  0
  3  9  1  0  0  0  0
  3 10  1  0  0  0  0
  6 11  1  0  0  0  0
  6 12  1  0  0  0  0
  7 13  1  0  0  0  0
  7 14  1  0  0  0  0
  7 15  1  0  0  0  0
M  END
$$$$
