C5H7NO2
APtclcactv12211716423D 0   0.00000     0.00000
 
 15 14  0  0  0  0  0  0  0  0999 V2000
   -2.5355   -0.2558    0.0000 C   0  0  0  0  0  0  0  0  0  0  0  0
   -3.5124    0.3239   -0.0000 N   0  0  0  0  0  0  0  0  0  0  0  0
   -1.2696   -1.0070    0.0000 C   0  0  0  0  0  0  0  0  0  0  0  0
   -0.1125   -0.0415   -0.0000 C   0  0  0  0  0  0  0  0  0  0  0  0
   -0.3191    1.1490   -0.0000 O   0  0  0  0  0  0  0  0  0  0  0  0
    1.1476   -0.5041   -0.0000 O   0  0  0  0  0  0  0  0  0  0  0  0
    2.2122    0.4833    0.0000 C   0  0  0  0  0  0  0  0  0  0  0  0
    3.5670   -0.2276   -0.0000 C   0  0  0  0  0  0  0  0  0  0  0  0
   -1.2193   -1.6343    0.8900 H   0  0  0  0  0  0  0  0  0  0  0  0
   -1.2193   -1.6343   -0.8900 H   0  0  0  0  0  0  0  0  0  0  0  0
    2.1292    1.1071   -0.8900 H   0  0  0  0  0  0  0  0  0  0  0  0
    2.1292    1.1071    0.8900 H   0  0  0  0  0  0  0  0  0  0  0  0
    3.6500   -0.8514    0.8900 H   0  0  0  0  0  0  0  0  0  0  0  0
    3.6500   -0.8514   -0.8900 H   0  0  0  0  0  0  0  0  0  0  0  0
    4.3662    0.5136   -0.0000 H   0  0  0  0  0  0  0  0  0  0  0  0
  1  2  3  0  0  0  0
  1  3  1  0  0  0  0
  3  4  1  0  0  0  0
  4  5  2  0  0  0  0
  4  6  1  0  0  0  0
  6  7  1  0  0  0  0
  7  8  1  0  0  0  0
  3  9  1  0  0  0  0
  3 10  1  0  0  0  0
  7 11  1  0  0  0  0
  7 12  1  0  0  0  0
  8 13  1  0  0  0  0
  8 14  1  0  0  0  0
  8 15  1  0  0  0  0
M  END
$$$$
