C6H14O6
APtclcactv12211716563D 0   0.00000     0.00000
 
 26 23  0  0  0  0  0  0  0  0999 V2000
  -13.7126   -0.0100   -0.0324 C   0  0  0  0  0  0  0  0  0  0  0  0
  -14.9307    0.6767    0.5296 C   0  0  0  0  0  0  0  0  0  0  0  0
  -12.8821    0.6293   -0.6335 O   0  0  0  0  0  0  0  0  0  0  0  0
  -13.5477   -1.3310    0.1395 O   0  0  0  0  0  0  0  0  0  0  0  0
   -0.2623    0.0450   -0.0904 C   0  0  0  0  0  0  0  0  0  0  0  0
   -1.4803    0.7317    0.4717 C   0  0  0  0  0  0  0  0  0  0  0  0
    0.5683    0.6843   -0.6914 O   0  0  0  0  0  0  0  0  0  0  0  0
   -0.0973   -1.2760    0.0816 O   0  0  0  0  0  0  0  0  0  0  0  0
   13.5798   -0.9328   -0.0947 C   0  0  0  0  0  0  0  0  0  0  0  0
   12.9411    0.1598    0.7649 C   0  0  0  0  0  0  0  0  0  0  0  0
   12.8622    1.3724    0.0129 O   0  0  0  0  0  0  0  0  0  0  0  0
   14.9336   -0.5796   -0.3855 O   0  0  0  0  0  0  0  0  0  0  0  0
  -15.7275    0.6693   -0.2141 H   0  0  0  0  0  0  0  0  0  0  0  0
  -15.2639    0.1508    1.4243 H   0  0  0  0  0  0  0  0  0  0  0  0
  -14.6816    1.7066    0.7851 H   0  0  0  0  0  0  0  0  0  0  0  0
  -12.7508   -1.7269   -0.2390 H   0  0  0  0  0  0  0  0  0  0  0  0
   -2.2771    0.7243   -0.2720 H   0  0  0  0  0  0  0  0  0  0  0  0
   -1.8135    0.2058    1.3664 H   0  0  0  0  0  0  0  0  0  0  0  0
   -1.2313    1.7616    0.7272 H   0  0  0  0  0  0  0  0  0  0  0  0
    0.6996   -1.6719   -0.2970 H   0  0  0  0  0  0  0  0  0  0  0  0
   13.5593   -1.8790    0.4461 H   0  0  0  0  0  0  0  0  0  0  0  0
   13.0227   -1.0345   -1.0261 H   0  0  0  0  0  0  0  0  0  0  0  0
   11.9388   -0.1500    1.0608 H   0  0  0  0  0  0  0  0  0  0  0  0
   13.5484    0.3233    1.6551 H   0  0  0  0  0  0  0  0  0  0  0  0
   12.4666    2.1103    0.4967 H   0  0  0  0  0  0  0  0  0  0  0  0
   15.4015   -1.2288   -0.9284 H   0  0  0  0  0  0  0  0  0  0  0  0
  1  2  1  0  0  0  0
  1  3  2  0  0  0  0
  1  4  1  0  0  0  0
  5  6  1  0  0  0  0
  5  7  2  0  0  0  0
  5  8  1  0  0  0  0
  9 10  1  0  0  0  0
 10 11  1  0  0  0  0
  9 12  1  0  0  0  0
  2 13  1  0  0  0  0
  2 14  1  0  0  0  0
  2 15  1  0  0  0  0
  4 16  1  0  0  0  0
  6 17  1  0  0  0  0
  6 18  1  0  0  0  0
  6 19  1  0  0  0  0
  8 20  1  0  0  0  0
  9 21  1  0  0  0  0
  9 22  1  0  0  0  0
 10 23  1  0  0  0  0
 10 24  1  0  0  0  0
 11 25  1  0  0  0  0
 12 26  1  0  0  0  0
M  END
$$$$
