C2H6O2
APtclcactv12101715353D 0   0.00000     0.00000
 
 10  9  0  0  0  0  0  0  0  0999 V2000
    0.7017   -0.5967   -0.3046 C   0  0  0  0  0  0  0  0  0  0  0  0
   -0.7017   -0.5967    0.3046 C   0  0  0  0  0  0  0  0  0  0  0  0
   -1.4269    0.5396   -0.1698 O   0  0  0  0  0  0  0  0  0  0  0  0
    1.4269    0.5396    0.1698 O   0  0  0  0  0  0  0  0  0  0  0  0
    1.2240   -1.5082   -0.0140 H   0  0  0  0  0  0  0  0  0  0  0  0
    0.6263   -0.5518   -1.3911 H   0  0  0  0  0  0  0  0  0  0  0  0
   -1.2240   -1.5082    0.0140 H   0  0  0  0  0  0  0  0  0  0  0  0
   -0.6263   -0.5518    1.3911 H   0  0  0  0  0  0  0  0  0  0  0  0
   -2.3275    0.6040    0.1764 H   0  0  0  0  0  0  0  0  0  0  0  0
    2.3275    0.6040   -0.1764 H   0  0  0  0  0  0  0  0  0  0  0  0
  1  2  1  0  0  0  0
  2  3  1  0  0  0  0
  1  4  1  0  0  0  0
  1  5  1  0  0  0  0
  1  6  1  0  0  0  0
  2  7  1  0  0  0  0
  2  8  1  0  0  0  0
  3  9  1  0  0  0  0
  4 10  1  0  0  0  0
M  END
$$$$
