C9H11NO2
APtclcactv12151716463D 0   0.00000     0.00000
 
 23 23  0  0  0  0  0  0  0  0999 V2000
    4.2878   -0.6132    0.0013 N   0  0  0  0  0  0  0  0  0  0  0  0
    2.9308   -0.3117    0.0009 C   0  0  0  0  0  0  0  0  0  0  0  0
    2.5145    1.0170   -0.0001 C   0  0  0  0  0  0  0  0  0  0  0  0
    1.1768    1.3178   -0.0001 C   0  0  0  0  0  0  0  0  0  0  0  0
    0.2301    0.2883    0.0005 C   0  0  0  0  0  0  0  0  0  0  0  0
   -1.2086    0.6080   -0.0000 C   0  0  0  0  0  0  0  0  0  0  0  0
   -1.5735    1.7671   -0.0009 O   0  0  0  0  0  0  0  0  0  0  0  0
   -2.1195   -0.3852    0.0005 O   0  0  0  0  0  0  0  0  0  0  0  0
   -3.5185    0.0035   -0.0000 C   0  0  0  0  0  0  0  0  0  0  0  0
   -4.3960   -1.2499    0.0006 C   0  0  0  0  0  0  0  0  0  0  0  0
    0.6518   -1.0452    0.0010 C   0  0  0  0  0  0  0  0  0  0  0  0
    1.9910   -1.3390   -0.0043 C   0  0  0  0  0  0  0  0  0  0  0  0
    4.9435    0.1017    0.0010 H   0  0  0  0  0  0  0  0  0  0  0  0
    4.5791   -1.5384    0.0060 H   0  0  0  0  0  0  0  0  0  0  0  0
    3.2460    1.8115   -0.0005 H   0  0  0  0  0  0  0  0  0  0  0  0
    0.8545    2.3486   -0.0001 H   0  0  0  0  0  0  0  0  0  0  0  0
   -3.7312    0.5964    0.8895 H   0  0  0  0  0  0  0  0  0  0  0  0
   -3.7308    0.5952   -0.8904 H   0  0  0  0  0  0  0  0  0  0  0  0
   -4.1836   -1.8416    0.8911 H   0  0  0  0  0  0  0  0  0  0  0  0
   -5.4462   -0.9581    0.0003 H   0  0  0  0  0  0  0  0  0  0  0  0
   -4.1833   -1.8428   -0.8889 H   0  0  0  0  0  0  0  0  0  0  0  0
   -0.0766   -1.8425    0.0017 H   0  0  0  0  0  0  0  0  0  0  0  0
    2.3173   -2.3686   -0.0043 H   0  0  0  0  0  0  0  0  0  0  0  0
  1  2  1  0  0  0  0
  2  3  2  0  0  0  0
  3  4  1  0  0  0  0
  4  5  2  0  0  0  0
  5  6  1  0  0  0  0
  6  7  2  0  0  0  0
  6  8  1  0  0  0  0
  8  9  1  0  0  0  0
  9 10  1  0  0  0  0
  5 11  1  0  0  0  0
 11 12  2  0  0  0  0
  2 12  1  0  0  0  0
  1 13  1  0  0  0  0
  1 14  1  0  0  0  0
  3 15  1  0  0  0  0
  4 16  1  0  0  0  0
  9 17  1  0  0  0  0
  9 18  1  0  0  0  0
 10 19  1  0  0  0  0
 10 20  1  0  0  0  0
 10 21  1  0  0  0  0
 11 22  1  0  0  0  0
 12 23  1  0  0  0  0
M  END
$$$$
