C5H12O
APtclcactv12211716463D 0   0.00000     0.00000
 
 18 17  0  0  0  0  0  0  0  0999 V2000
   -1.4036    0.2090   -0.4735 C   0  0  0  0  0  0  0  0  0  0  0  0
   -2.7033   -0.1490    0.2500 C   0  0  0  0  0  0  0  0  0  0  0  0
   -0.2907   -0.2881    0.2724 O   0  0  0  0  0  0  0  0  0  0  0  0
    0.9787   -0.0057   -0.3199 C   0  0  0  0  0  0  0  0  0  0  0  0
    1.4966    1.3370    0.1997 C   0  0  0  0  0  0  0  0  0  0  0  0
    1.9702   -1.1114    0.0476 C   0  0  0  0  0  0  0  0  0  0  0  0
   -1.4051   -0.2400   -1.4667 H   0  0  0  0  0  0  0  0  0  0  0  0
   -1.3251    1.2924   -0.5647 H   0  0  0  0  0  0  0  0  0  0  0  0
   -2.7818   -1.2323    0.3412 H   0  0  0  0  0  0  0  0  0  0  0  0
   -2.7019    0.3001    1.2432 H   0  0  0  0  0  0  0  0  0  0  0  0
   -3.5522    0.2302   -0.3190 H   0  0  0  0  0  0  0  0  0  0  0  0
    0.8717    0.0410   -1.4036 H   0  0  0  0  0  0  0  0  0  0  0  0
    1.6036    1.2904    1.2834 H   0  0  0  0  0  0  0  0  0  0  0  0
    2.4648    1.5524   -0.2521 H   0  0  0  0  0  0  0  0  0  0  0  0
    0.7902    2.1248   -0.0621 H   0  0  0  0  0  0  0  0  0  0  0  0
    1.6013   -2.0680   -0.3226 H   0  0  0  0  0  0  0  0  0  0  0  0
    2.9385   -0.8960   -0.4042 H   0  0  0  0  0  0  0  0  0  0  0  0
    2.0773   -1.1581    1.1313 H   0  0  0  0  0  0  0  0  0  0  0  0
  1  2  1  0  0  0  0
  1  3  1  0  0  0  0
  3  4  1  0  0  0  0
  4  5  1  0  0  0  0
  4  6  1  0  0  0  0
  1  7  1  0  0  0  0
  1  8  1  0  0  0  0
  2  9  1  0  0  0  0
  2 10  1  0  0  0  0
  2 11  1  0  0  0  0
  4 12  1  0  0  0  0
  5 13  1  0  0  0  0
  5 14  1  0  0  0  0
  5 15  1  0  0  0  0
  6 16  1  0  0  0  0
  6 17  1  0  0  0  0
  6 18  1  0  0  0  0
M  END
$$$$
