C3H5O3
APtclcactv12211716453D 0   0.00000     0.00000
 
 11 10  0  0  0  0  0  0  0  0999 V2000
    1.0171   -0.0433   -0.0017 C   0  0  0  0  0  0  0  0  0  0  0  0
   -0.2394   -0.5169   -0.0016 O   0  0  0  0  0  0  0  0  0  0  0  0
   -1.3125    0.4612    0.0007 C   0  0  0  0  0  0  0  0  0  0  0  0
   -2.6612   -0.2614    0.0005 C   0  0  0  0  0  0  0  0  0  0  0  0
    1.2156    1.1626    0.0001 O   0  5  0  0  0  0  0  0  0  0  0  0
    1.9622   -0.8181    0.0015 O   0  0  0  0  0  0  0  0  0  0  0  0
   -1.2343    1.0842    0.8917 H   0  0  0  0  0  0  0  0  0  0  0  0
   -1.2356    1.0871   -0.8883 H   0  0  0  0  0  0  0  0  0  0  0  0
   -2.7394   -0.8845   -0.8904 H   0  0  0  0  0  0  0  0  0  0  0  0
   -2.7381   -0.8874    0.8895 H   0  0  0  0  0  0  0  0  0  0  0  0
   -3.4668    0.4728    0.0022 H   0  0  0  0  0  0  0  0  0  0  0  0
  1  2  1  0  0  0  0
  2  3  1  0  0  0  0
  3  4  1  0  0  0  0
  1  5  1  0  0  0  0
  1  6  2  0  0  0  0
  3  7  1  0  0  0  0
  3  8  1  0  0  0  0
  4  9  1  0  0  0  0
  4 10  1  0  0  0  0
  4 11  1  0  0  0  0
M  CHG  1   5  -1
M  END
$$$$
