C6H10O3
APtclcactv12211716563D 0   0.00000     0.00000
 
 19 18  0  0  0  0  0  0  0  0999 V2000
    0.2804   -0.0257   -0.0031 C   0  0  0  0  0  0  0  0  0  0  0  0
   -0.9268   -0.9278   -0.0024 C   0  0  0  0  0  0  0  0  0  0  0  0
   -2.1797   -0.0904    0.0005 C   0  0  0  0  0  0  0  0  0  0  0  0
   -2.1005    1.1146    0.0019 O   0  0  0  0  0  0  0  0  0  0  0  0
   -3.5314   -0.7567    0.0017 C   0  0  0  0  0  0  0  0  0  0  0  0
    0.1379    1.1741   -0.0014 O   0  0  0  0  0  0  0  0  0  0  0  0
    1.5138   -0.5551   -0.0000 O   0  0  0  0  0  0  0  0  0  0  0  0
    2.6299    0.3737   -0.0009 C   0  0  0  0  0  0  0  0  0  0  0  0
    3.9446   -0.4088    0.0030 C   0  0  0  0  0  0  0  0  0  0  0  0
   -0.9116   -1.5558   -0.8932 H   0  0  0  0  0  0  0  0  0  0  0  0
   -0.9090   -1.5580    0.8867 H   0  0  0  0  0  0  0  0  0  0  0  0
   -3.8558   -0.9186    1.0296 H   0  0  0  0  0  0  0  0  0  0  0  0
   -4.2516   -0.1184   -0.5103 H   0  0  0  0  0  0  0  0  0  0  0  0
   -3.4645   -1.7149   -0.5135 H   0  0  0  0  0  0  0  0  0  0  0  0
    2.5817    0.9988   -0.8925 H   0  0  0  0  0  0  0  0  0  0  0  0
    2.5792    1.0034    0.8874 H   0  0  0  0  0  0  0  0  0  0  0  0
    4.7824    0.2885    0.0024 H   0  0  0  0  0  0  0  0  0  0  0  0
    3.9928   -1.0338    0.8947 H   0  0  0  0  0  0  0  0  0  0  0  0
    3.9953   -1.0384   -0.8853 H   0  0  0  0  0  0  0  0  0  0  0  0
  1  2  1  0  0  0  0
  2  3  1  0  0  0  0
  3  4  2  0  0  0  0
  3  5  1  0  0  0  0
  1  6  2  0  0  0  0
  1  7  1  0  0  0  0
  7  8  1  0  0  0  0
  8  9  1  0  0  0  0
  2 10  1  0  0  0  0
  2 11  1  0  0  0  0
  5 12  1  0  0  0  0
  5 13  1  0  0  0  0
  5 14  1  0  0  0  0
  8 15  1  0  0  0  0
  8 16  1  0  0  0  0
  9 17  1  0  0  0  0
  9 18  1  0  0  0  0
  9 19  1  0  0  0  0
M  END
$$$$
