C11H22O2
APtclcactv12111704493D 0   0.00000     0.00000
 
 35 34  0  0  0  0  0  0  0  0999 V2000
    2.8665    0.1313   -0.0033 C   0  0  0  0  0  0  0  0  0  0  0  0
    1.6109   -0.7020   -0.0037 C   0  0  0  0  0  0  0  0  0  0  0  0
    0.3882    0.2178   -0.0018 C   0  0  0  0  0  0  0  0  0  0  0  0
   -0.8865   -0.6283   -0.0022 C   0  0  0  0  0  0  0  0  0  0  0  0
   -2.1091    0.2916   -0.0002 C   0  0  0  0  0  0  0  0  0  0  0  0
   -3.3839   -0.5545   -0.0007 C   0  0  0  0  0  0  0  0  0  0  0  0
   -4.6065    0.3653    0.0013 C   0  0  0  0  0  0  0  0  0  0  0  0
   -5.8813   -0.4808    0.0009 C   0  0  0  0  0  0  0  0  0  0  0  0
   -7.1039    0.4391    0.0029 C   0  0  0  0  0  0  0  0  0  0  0  0
    2.7912    1.3372   -0.0016 O   0  0  0  0  0  0  0  0  0  0  0  0
    4.0685   -0.4661    0.0007 O   0  0  0  0  0  0  0  0  0  0  0  0
    5.2346    0.3991    0.0009 C   0  0  0  0  0  0  0  0  0  0  0  0
    6.5037   -0.4555    0.0058 C   0  0  0  0  0  0  0  0  0  0  0  0
    1.5918   -1.3298   -0.8946 H   0  0  0  0  0  0  0  0  0  0  0  0
    1.5928   -1.3323    0.8854 H   0  0  0  0  0  0  0  0  0  0  0  0
    0.4073    0.8456    0.8891 H   0  0  0  0  0  0  0  0  0  0  0  0
    0.4063    0.8481   -0.8909 H   0  0  0  0  0  0  0  0  0  0  0  0
   -0.9056   -1.2561   -0.8930 H   0  0  0  0  0  0  0  0  0  0  0  0
   -0.9046   -1.2586    0.8869 H   0  0  0  0  0  0  0  0  0  0  0  0
   -2.0901    0.9194    0.8906 H   0  0  0  0  0  0  0  0  0  0  0  0
   -2.0911    0.9218   -0.8893 H   0  0  0  0  0  0  0  0  0  0  0  0
   -3.4030   -1.1823   -0.8915 H   0  0  0  0  0  0  0  0  0  0  0  0
   -3.4020   -1.1848    0.8885 H   0  0  0  0  0  0  0  0  0  0  0  0
   -4.5874    0.9931    0.8922 H   0  0  0  0  0  0  0  0  0  0  0  0
   -4.5885    0.9956   -0.8878 H   0  0  0  0  0  0  0  0  0  0  0  0
   -5.9004   -1.1086   -0.8899 H   0  0  0  0  0  0  0  0  0  0  0  0
   -5.8994   -1.1110    0.8900 H   0  0  0  0  0  0  0  0  0  0  0  0
   -7.0859    1.0693   -0.8862 H   0  0  0  0  0  0  0  0  0  0  0  0
   -8.0121   -0.1637    0.0026 H   0  0  0  0  0  0  0  0  0  0  0  0
   -7.0848    1.0669    0.8937 H   0  0  0  0  0  0  0  0  0  0  0  0
    5.2221    1.0259   -0.8907 H   0  0  0  0  0  0  0  0  0  0  0  0
    5.2184    1.0305    0.8892 H   0  0  0  0  0  0  0  0  0  0  0  0
    7.3790    0.1939    0.0059 H   0  0  0  0  0  0  0  0  0  0  0  0
    6.5162   -1.0823    0.8974 H   0  0  0  0  0  0  0  0  0  0  0  0
    6.5199   -1.0870   -0.8825 H   0  0  0  0  0  0  0  0  0  0  0  0
  1  2  1  0  0  0  0
  2  3  1  0  0  0  0
  3  4  1  0  0  0  0
  4  5  1  0  0  0  0
  5  6  1  0  0  0  0
  6  7  1  0  0  0  0
  7  8  1  0  0  0  0
  8  9  1  0  0  0  0
  1 10  2  0  0  0  0
  1 11  1  0  0  0  0
 11 12  1  0  0  0  0
 12 13  1  0  0  0  0
  2 14  1  0  0  0  0
  2 15  1  0  0  0  0
  3 16  1  0  0  0  0
  3 17  1  0  0  0  0
  4 18  1  0  0  0  0
  4 19  1  0  0  0  0
  5 20  1  0  0  0  0
  5 21  1  0  0  0  0
  6 22  1  0  0  0  0
  6 23  1  0  0  0  0
  7 24  1  0  0  0  0
  7 25  1  0  0  0  0
  8 26  1  0  0  0  0
  8 27  1  0  0  0  0
  9 28  1  0  0  0  0
  9 29  1  0  0  0  0
  9 30  1  0  0  0  0
 12 31  1  0  0  0  0
 12 32  1  0  0  0  0
 13 33  1  0  0  0  0
 13 34  1  0  0  0  0
 13 35  1  0  0  0  0
M  END
$$$$
