C4H8O2
APtclcactv12211716393D 0   0.00000     0.00000
 
 14 13  0  0  0  0  0  0  0  0999 V2000
   -0.9910    0.0342   -0.0014 C   0  0  0  0  0  0  0  0  0  0  0  0
   -2.1989   -0.8669    0.0002 C   0  0  0  0  0  0  0  0  0  0  0  0
   -1.1325    1.2342    0.0010 O   0  0  0  0  0  0  0  0  0  0  0  0
    0.2420   -0.4962    0.0003 O   0  0  0  0  0  0  0  0  0  0  0  0
    1.3588    0.4318   -0.0014 C   0  0  0  0  0  0  0  0  0  0  0  0
    2.6729   -0.3517    0.0009 C   0  0  0  0  0  0  0  0  0  0  0  0
   -3.1046   -0.2605    0.0034 H   0  0  0  0  0  0  0  0  0  0  0  0
   -2.1851   -1.4945   -0.8909 H   0  0  0  0  0  0  0  0  0  0  0  0
   -2.1806   -1.4975    0.8891 H   0  0  0  0  0  0  0  0  0  0  0  0
    1.3102    1.0572   -0.8927 H   0  0  0  0  0  0  0  0  0  0  0  0
    1.3095    1.0612    0.8872 H   0  0  0  0  0  0  0  0  0  0  0  0
    3.5113    0.3449   -0.0004 H   0  0  0  0  0  0  0  0  0  0  0  0
    2.7216   -0.9772    0.8922 H   0  0  0  0  0  0  0  0  0  0  0  0
    2.7222   -0.9811   -0.8877 H   0  0  0  0  0  0  0  0  0  0  0  0
  1  2  1  0  0  0  0
  1  3  2  0  0  0  0
  1  4  1  0  0  0  0
  4  5  1  0  0  0  0
  5  6  1  0  0  0  0
  2  7  1  0  0  0  0
  2  8  1  0  0  0  0
  2  9  1  0  0  0  0
  5 10  1  0  0  0  0
  5 11  1  0  0  0  0
  6 12  1  0  0  0  0
  6 13  1  0  0  0  0
  6 14  1  0  0  0  0
M  END
$$$$
