C10H17N2O4PS
APtclcactv12211717283D 0   0.00000     0.00000
 
 35 35  0  0  0  0  0  0  0  0999 V2000
    0.9829    0.9164   -0.8098 C   0  0  0  0  0  0  0  0  0  0  0  0
    2.1394   -3.0572   -0.1623 C   0  0  0  0  0  0  0  0  0  0  0  0
    4.4618    1.1970    0.3146 C   0  0  0  0  0  0  0  0  0  0  0  0
   -2.5855    2.1616    1.6398 C   0  0  0  0  0  0  0  0  0  0  0  0
   -4.8822    0.0591   -0.0484 C   0  0  0  0  0  0  0  0  0  0  0  0
    1.8312   -3.4489    1.2842 C   0  0  0  0  0  0  0  0  0  0  0  0
    5.3348    2.4369    0.5182 C   0  0  0  0  0  0  0  0  0  0  0  0
    0.0944   -0.1297   -1.0311 C   0  0  0  0  0  0  0  0  0  0  0  0
    1.7234   -1.6277   -0.3953 C   0  0  0  0  0  0  0  0  0  0  0  0
    2.2648    0.6101   -0.3683 C   0  0  0  0  0  0  0  0  0  0  0  0
   -2.0212    1.7865    0.3817 O   0  0  0  0  0  0  0  0  0  0  0  0
   -3.7260    0.2258   -0.8715 O   0  0  0  0  0  0  0  0  0  0  0  0
   -1.1663    0.1187   -1.4623 O   0  0  0  0  0  0  0  0  0  0  0  0
    3.1664    1.5957   -0.1381 O   0  0  0  0  0  0  0  0  0  0  0  0
    2.5937   -0.6637   -0.1744 N   0  0  0  0  0  0  0  0  0  0  0  0
    0.4993   -1.3774   -0.8141 N   0  0  0  0  0  0  0  0  0  0  0  0
   -2.2339    0.3325   -0.2762 P   0  0  0  0  0  0  0  0  0  0  0  0
   -1.9886   -0.9796    1.0242 S   0  0  0  0  0  0  0  0  0  0  0  0
   -3.6716    2.0860    1.5878 H   0  0  0  0  0  0  0  0  0  0  0  0
   -2.2118    1.4966    2.4184 H   0  0  0  0  0  0  0  0  0  0  0  0
   -2.3036    3.1884    1.8728 H   0  0  0  0  0  0  0  0  0  0  0  0
   -5.7718    0.0134   -0.6766 H   0  0  0  0  0  0  0  0  0  0  0  0
   -4.7921   -0.8655    0.5217 H   0  0  0  0  0  0  0  0  0  0  0  0
   -4.9646    0.9023    0.6374 H   0  0  0  0  0  0  0  0  0  0  0  0
    2.1321   -4.4829    1.4527 H   0  0  0  0  0  0  0  0  0  0  0  0
    2.3801   -2.7956    1.9624 H   0  0  0  0  0  0  0  0  0  0  0  0
    0.7616   -3.3472    1.4681 H   0  0  0  0  0  0  0  0  0  0  0  0
    3.2090   -3.1589   -0.3462 H   0  0  0  0  0  0  0  0  0  0  0  0
    1.5905   -3.7105   -0.8405 H   0  0  0  0  0  0  0  0  0  0  0  0
    5.4291    2.9739   -0.4257 H   0  0  0  0  0  0  0  0  0  0  0  0
    4.8743    3.0874    1.2618 H   0  0  0  0  0  0  0  0  0  0  0  0
    6.3229    2.1329    0.8635 H   0  0  0  0  0  0  0  0  0  0  0  0
    4.9223    0.5466   -0.4290 H   0  0  0  0  0  0  0  0  0  0  0  0
    4.3675    0.6601    1.2585 H   0  0  0  0  0  0  0  0  0  0  0  0
    0.6862    1.9407   -0.9809 H   0  0  0  0  0  0  0  0  0  0  0  0
  4 11  1  0  0  0  0
 11 17  1  0  0  0  0
  5 12  1  0  0  0  0
 12 17  1  0  0  0  0
 17 18  2  0  0  0  0
 13 17  1  0  0  0  0
  8 13  1  0  0  0  0
  8 16  2  0  0  0  0
  1  8  1  0  0  0  0
  2  6  1  0  0  0  0
  2  9  1  0  0  0  0
  9 15  2  0  0  0  0
  9 16  1  0  0  0  0
  3  7  1  0  0  0  0
  3 14  1  0  0  0  0
 10 14  1  0  0  0  0
 10 15  1  0  0  0  0
  1 10  2  0  0  0  0
  4 19  1  0  0  0  0
  4 20  1  0  0  0  0
  4 21  1  0  0  0  0
  5 22  1  0  0  0  0
  5 23  1  0  0  0  0
  5 24  1  0  0  0  0
  6 25  1  0  0  0  0
  6 26  1  0  0  0  0
  6 27  1  0  0  0  0
  2 28  1  0  0  0  0
  2 29  1  0  0  0  0
  7 30  1  0  0  0  0
  7 31  1  0  0  0  0
  7 32  1  0  0  0  0
  3 33  1  0  0  0  0
  3 34  1  0  0  0  0
  1 35  1  0  0  0  0
M  END
$$$$
