C12H16N2
APtclcactv12111705003D 0   0.00000     0.00000
 
 30 31  0  0  0  0  0  0  0  0999 V2000
    1.2011    1.3788    0.5638 C   0  0  0  0  0  0  0  0  0  0  0  0
    0.3836   -2.1251    0.0306 C   0  0  0  0  0  0  0  0  0  0  0  0
    3.3201   -0.0764   -0.5077 C   0  0  0  0  0  0  0  0  0  0  0  0
    2.3926    1.9906    0.2940 C   0  0  0  0  0  0  0  0  0  0  0  0
    3.4510    1.2686   -0.2406 C   0  0  0  0  0  0  0  0  0  0  0  0
   -1.4295   -0.6282    1.0061 C   0  0  0  0  0  0  0  0  0  0  0  0
   -3.7439    0.0953    0.4041 C   0  0  0  0  0  0  0  0  0  0  0  0
   -4.6600    0.5079   -0.7499 C   0  0  0  0  0  0  0  0  0  0  0  0
    2.2133   -2.7461   -0.7470 H   0  0  0  0  0  0  0  0  0  0  0  0
   -2.3258    1.5335   -1.3774 H   0  0  0  0  0  0  0  0  0  0  0  0
   -1.7756    1.8706    0.1554 H   0  0  0  0  0  0  0  0  0  0  0  0
   -0.0580   -0.9327    0.4610 C   0  0  0  0  0  0  0  0  0  0  0  0
   -2.3190   -0.0960   -0.1193 C   0  0  0  0  0  0  0  0  0  0  0  0
   -1.7936    1.1921   -0.5912 N   0  0  0  0  0  0  0  0  0  0  0  0
    1.0463    0.0163    0.3004 C   0  0  0  0  0  0  0  0  0  0  0  0
    2.1158   -0.7199   -0.2409 C   0  0  0  0  0  0  0  0  0  0  0  0
    1.6803   -2.0172   -0.3926 N   0  0  0  0  0  0  0  0  0  0  0  0
    0.3835    1.9459    0.9835 H   0  0  0  0  0  0  0  0  0  0  0  0
   -0.1984   -3.0348    0.0199 H   0  0  0  0  0  0  0  0  0  0  0  0
   -1.8678   -1.5381    1.4162 H   0  0  0  0  0  0  0  0  0  0  0  0
   -1.3497    0.1228    1.7921 H   0  0  0  0  0  0  0  0  0  0  0  0
    4.1493   -0.6294   -0.9236 H   0  0  0  0  0  0  0  0  0  0  0  0
    2.5119    3.0444    0.4980 H   0  0  0  0  0  0  0  0  0  0  0  0
   -2.3274   -0.8090   -0.9437 H   0  0  0  0  0  0  0  0  0  0  0  0
    4.3866    1.7663   -0.4488 H   0  0  0  0  0  0  0  0  0  0  0  0
   -3.7491    0.8729    1.1679 H   0  0  0  0  0  0  0  0  0  0  0  0
   -4.1013   -0.8398    0.8352 H   0  0  0  0  0  0  0  0  0  0  0  0
   -4.3026    1.4430   -1.1810 H   0  0  0  0  0  0  0  0  0  0  0  0
   -4.6548   -0.2697   -1.5137 H   0  0  0  0  0  0  0  0  0  0  0  0
   -5.6751    0.6442   -0.3771 H   0  0  0  0  0  0  0  0  0  0  0  0
 12 15  1  0  0  0  0
 15 16  2  0  0  0  0
  1 15  1  0  0  0  0
  2 12  2  0  0  0  0
  6 12  1  0  0  0  0
 16 17  1  0  0  0  0
  3 16  1  0  0  0  0
  1  4  2  0  0  0  0
  6 13  1  0  0  0  0
  3  5  2  0  0  0  0
  7 13  1  0  0  0  0
 13 14  1  0  0  0  0
  7  8  1  0  0  0  0
  2 17  1  0  0  0  0
  4  5  1  0  0  0  0
  1 18  1  0  0  0  0
  2 19  1  0  0  0  0
  6 20  1  0  0  0  0
  6 21  1  0  0  0  0
  9 17  1  0  0  0  0
  3 22  1  0  0  0  0
  4 23  1  0  0  0  0
 13 24  1  0  0  0  0
  5 25  1  0  0  0  0
  7 26  1  0  0  0  0
  7 27  1  0  0  0  0
 10 14  1  0  0  0  0
 11 14  1  0  0  0  0
  8 28  1  0  0  0  0
  8 29  1  0  0  0  0
  8 30  1  0  0  0  0
M  END
$$$$
