C15H14O3
APtclcactv12211717073D 0   0.00000     0.00000
 
 32 33  0  0  0  0  0  0  0  0999 V2000
    0.5746   -0.6617   -0.7932 C   0  0  0  0  0  0  0  0  0  0  0  0
   -0.5045   -1.4117    1.2173 C   0  0  0  0  0  0  0  0  0  0  0  0
    0.6965   -1.3192    1.8932 C   0  0  0  0  0  0  0  0  0  0  0  0
    1.8345   -0.8992    1.2291 C   0  0  0  0  0  0  0  0  0  0  0  0
   -2.4948    0.7093    0.4538 C   0  0  0  0  0  0  0  0  0  0  0  0
   -4.0027   -0.4430   -1.0186 C   0  0  0  0  0  0  0  0  0  0  0  0
   -3.5052    1.5863    0.7976 C   0  0  0  0  0  0  0  0  0  0  0  0
   -5.0095    0.4366   -0.6714 C   0  0  0  0  0  0  0  0  0  0  0  0
   -4.7613    1.4502    0.2358 C   0  0  0  0  0  0  0  0  0  0  0  0
    4.0763   -1.2148   -0.7690 C   0  0  0  0  0  0  0  0  0  0  0  0
   -0.5685   -1.0827   -0.1294 C   0  0  0  0  0  0  0  0  0  0  0  0
    1.7734   -0.5709   -0.1125 C   0  0  0  0  0  0  0  0  0  0  0  0
   -2.7413   -0.3088   -0.4563 C   0  0  0  0  0  0  0  0  0  0  0  0
    2.9752    1.6045    0.7784 O   0  0  0  0  0  0  0  0  0  0  0  0
    4.6548    1.7234   -0.6528 O   0  0  0  0  0  0  0  0  0  0  0  0
    3.5468    1.1341   -0.1766 C   0  0  0  0  0  0  0  0  0  0  0  0
   -1.7490   -1.1725   -0.7965 O   0  0  0  0  0  0  0  0  0  0  0  0
    4.9572    2.5218   -0.1987 H   0  0  0  0  0  0  0  0  0  0  0  0
    3.0156   -0.1140   -0.8331 C   0  0  0  0  0  0  0  0  0  0  0  0
    0.5283   -0.4093   -1.8423 H   0  0  0  0  0  0  0  0  0  0  0  0
   -1.3928   -1.7401    1.7363 H   0  0  0  0  0  0  0  0  0  0  0  0
    0.7469   -1.5751    2.9412 H   0  0  0  0  0  0  0  0  0  0  0  0
    2.7726   -0.8276    1.7594 H   0  0  0  0  0  0  0  0  0  0  0  0
    2.7743    0.0978   -1.8747 H   0  0  0  0  0  0  0  0  0  0  0  0
   -1.5127    0.8187    0.8895 H   0  0  0  0  0  0  0  0  0  0  0  0
   -4.1972   -1.2348   -1.7269 H   0  0  0  0  0  0  0  0  0  0  0  0
    4.3176   -1.4267    0.2726 H   0  0  0  0  0  0  0  0  0  0  0  0
    3.6921   -2.1176   -1.2438 H   0  0  0  0  0  0  0  0  0  0  0  0
    4.9748   -0.8844   -1.2902 H   0  0  0  0  0  0  0  0  0  0  0  0
   -3.3140    2.3786    1.5061 H   0  0  0  0  0  0  0  0  0  0  0  0
   -5.9915    0.3325   -1.1088 H   0  0  0  0  0  0  0  0  0  0  0  0
   -5.5500    2.1367    0.5062 H   0  0  0  0  0  0  0  0  0  0  0  0
  1 11  2  0  0  0  0
 11 17  1  0  0  0  0
  2 11  1  0  0  0  0
  1 12  1  0  0  0  0
 13 17  1  0  0  0  0
  2  3  2  0  0  0  0
  4 12  2  0  0  0  0
 12 19  1  0  0  0  0
  5 13  2  0  0  0  0
  6 13  1  0  0  0  0
 16 19  1  0  0  0  0
 10 19  1  0  0  0  0
  5  7  1  0  0  0  0
  6  8  2  0  0  0  0
 15 16  1  0  0  0  0
 14 16  2  0  0  0  0
  7  9  2  0  0  0  0
  3  4  1  0  0  0  0
  8  9  1  0  0  0  0
  1 20  1  0  0  0  0
  2 21  1  0  0  0  0
  3 22  1  0  0  0  0
  4 23  1  0  0  0  0
 19 24  1  0  0  0  0
  5 25  1  0  0  0  0
  6 26  1  0  0  0  0
 10 27  1  0  0  0  0
 10 28  1  0  0  0  0
 10 29  1  0  0  0  0
  7 30  1  0  0  0  0
  8 31  1  0  0  0  0
 15 18  1  0  0  0  0
  9 32  1  0  0  0  0
M  END
$$$$
