C11H17O5PS2
APtclcactv12111704483D 0   0.00000     0.00000
 
 36 36  0  0  0  0  0  0  0  0999 V2000
    0.7974    1.5312    0.1441 C   0  0  0  0  0  0  0  0  0  0  0  0
    2.1118    1.3153   -0.2220 C   0  0  0  0  0  0  0  0  0  0  0  0
    2.0995   -0.7752    0.9490 C   0  0  0  0  0  0  0  0  0  0  0  0
    0.7850   -0.5640    1.3177 C   0  0  0  0  0  0  0  0  0  0  0  0
   -2.9270   -2.2198   -0.6122 C   0  0  0  0  0  0  0  0  0  0  0  0
   -4.7771    0.7916   -0.3801 C   0  0  0  0  0  0  0  0  0  0  0  0
   -2.8226   -3.6811   -0.1712 C   0  0  0  0  0  0  0  0  0  0  0  0
   -5.9974    1.4865    0.2271 C   0  0  0  0  0  0  0  0  0  0  0  0
    5.4102    0.6352    1.0495 C   0  0  0  0  0  0  0  0  0  0  0  0
    0.1301    0.5910    0.9157 C   0  0  0  0  0  0  0  0  0  0  0  0
    2.7623    0.1633    0.1799 C   0  0  0  0  0  0  0  0  0  0  0  0
    4.5920    0.6348   -1.4900 O   0  0  0  0  0  0  0  0  0  0  0  0
    4.5794   -1.5233   -0.2806 O   0  0  0  0  0  0  0  0  0  0  0  0
   -2.3128   -1.3812    0.3684 O   0  0  0  0  0  0  0  0  0  0  0  0
   -3.6861    0.8541    0.5407 O   0  0  0  0  0  0  0  0  0  0  0  0
   -1.1629    0.8013    1.2775 O   0  0  0  0  0  0  0  0  0  0  0  0
    4.4387   -0.1093   -0.2892 S   0  0  0  0  0  0  0  0  0  0  0  0
   -2.2388    0.2211    0.2298 P   0  0  0  0  0  0  0  0  0  0  0  0
   -1.7232    0.6714   -1.5035 S   0  0  0  0  0  0  0  0  0  0  0  0
   -3.2911   -4.3207   -0.9192 H   0  0  0  0  0  0  0  0  0  0  0  0
   -1.7728   -3.9546   -0.0654 H   0  0  0  0  0  0  0  0  0  0  0  0
   -3.3296   -3.8091    0.7852 H   0  0  0  0  0  0  0  0  0  0  0  0
   -2.4200   -2.0918   -1.5686 H   0  0  0  0  0  0  0  0  0  0  0  0
   -3.9768   -1.9463   -0.7180 H   0  0  0  0  0  0  0  0  0  0  0  0
   -5.0183   -0.2510   -0.5874 H   0  0  0  0  0  0  0  0  0  0  0  0
   -4.4985    1.2914   -1.3078 H   0  0  0  0  0  0  0  0  0  0  0  0
   -5.7562    2.5291    0.4344 H   0  0  0  0  0  0  0  0  0  0  0  0
   -6.8296    1.4388   -0.4753 H   0  0  0  0  0  0  0  0  0  0  0  0
   -6.2759    0.9867    1.1548 H   0  0  0  0  0  0  0  0  0  0  0  0
    0.2911    2.4332   -0.1664 H   0  0  0  0  0  0  0  0  0  0  0  0
    2.6316    2.0467   -0.8230 H   0  0  0  0  0  0  0  0  0  0  0  0
    2.6099   -1.6741    1.2620 H   0  0  0  0  0  0  0  0  0  0  0  0
    0.2676   -1.2976    1.9181 H   0  0  0  0  0  0  0  0  0  0  0  0
    5.1664    0.1444    1.9918 H   0  0  0  0  0  0  0  0  0  0  0  0
    6.4726    0.5114    0.8397 H   0  0  0  0  0  0  0  0  0  0  0  0
    5.1754    1.6972    1.1216 H   0  0  0  0  0  0  0  0  0  0  0  0
  5  7  1  0  0  0  0
  5 14  1  0  0  0  0
 14 18  1  0  0  0  0
 18 19  2  0  0  0  0
 15 18  1  0  0  0  0
  6 15  1  0  0  0  0
  6  8  1  0  0  0  0
 16 18  1  0  0  0  0
 10 16  1  0  0  0  0
  1 10  1  0  0  0  0
  1  2  2  0  0  0  0
  2 11  1  0  0  0  0
  3 11  2  0  0  0  0
  3  4  1  0  0  0  0
  4 10  2  0  0  0  0
 11 17  1  0  0  0  0
  9 17  1  0  0  0  0
 12 17  2  0  0  0  0
 13 17  2  0  0  0  0
  7 20  1  0  0  0  0
  7 21  1  0  0  0  0
  7 22  1  0  0  0  0
  5 23  1  0  0  0  0
  5 24  1  0  0  0  0
  6 25  1  0  0  0  0
  6 26  1  0  0  0  0
  8 27  1  0  0  0  0
  8 28  1  0  0  0  0
  8 29  1  0  0  0  0
  1 30  1  0  0  0  0
  2 31  1  0  0  0  0
  3 32  1  0  0  0  0
  4 33  1  0  0  0  0
  9 34  1  0  0  0  0
  9 35  1  0  0  0  0
  9 36  1  0  0  0  0
M  END
$$$$
