C11H17O4PS2
APtclcactv12111704483D 0   0.00000     0.00000
 
 35 35  0  0  0  0  0  0  0  0999 V2000
    0.9569    0.5202    1.1498 C   0  0  0  0  0  0  0  0  0  0  0  0
    0.8070   -1.6179    0.0666 C   0  0  0  0  0  0  0  0  0  0  0  0
    2.2708    0.6334    0.7385 C   0  0  0  0  0  0  0  0  0  0  0  0
    2.1211   -1.4997   -0.3427 C   0  0  0  0  0  0  0  0  0  0  0  0
   -4.7241   -0.5518   -0.3442 C   0  0  0  0  0  0  0  0  0  0  0  0
   -1.0609    2.2769   -0.3204 C   0  0  0  0  0  0  0  0  0  0  0  0
   -5.9671   -1.1436    0.3232 C   0  0  0  0  0  0  0  0  0  0  0  0
   -1.3435    3.7600   -0.0730 C   0  0  0  0  0  0  0  0  0  0  0  0
    5.4507   -0.9850    0.8368 C   0  0  0  0  0  0  0  0  0  0  0  0
    0.2210   -0.6070    0.8144 C   0  0  0  0  0  0  0  0  0  0  0  0
    2.8526   -0.3755   -0.0068 C   0  0  0  0  0  0  0  0  0  0  0  0
    4.7427    1.1768   -0.5248 O   0  0  0  0  0  0  0  0  0  0  0  0
   -1.0716   -0.7210    1.2182 O   0  0  0  0  0  0  0  0  0  0  0  0
   -3.6133   -0.6452    0.5499 O   0  0  0  0  0  0  0  0  0  0  0  0
   -2.1103    1.4908    0.2478 O   0  0  0  0  0  0  0  0  0  0  0  0
   -2.1392   -0.1173    0.1750 P   0  0  0  0  0  0  0  0  0  0  0  0
   -1.7019   -0.6691   -1.5504 S   0  0  0  0  0  0  0  0  0  0  0  0
    4.5287   -0.2280   -0.5298 S   0  0  0  0  0  0  0  0  0  0  0  0
   -4.5034   -1.1053   -1.2569 H   0  0  0  0  0  0  0  0  0  0  0  0
   -4.9065    0.4946   -0.5890 H   0  0  0  0  0  0  0  0  0  0  0  0
   -1.0078    2.0911   -1.3931 H   0  0  0  0  0  0  0  0  0  0  0  0
   -0.1122    2.0056    0.1428 H   0  0  0  0  0  0  0  0  0  0  0  0
    0.5043    1.3065    1.7356 H   0  0  0  0  0  0  0  0  0  0  0  0
    0.2363   -2.4966   -0.1955 H   0  0  0  0  0  0  0  0  0  0  0  0
   -6.8144   -1.0724   -0.3587 H   0  0  0  0  0  0  0  0  0  0  0  0
   -5.7847   -2.1900    0.5680 H   0  0  0  0  0  0  0  0  0  0  0  0
   -6.1878   -0.5901    1.2359 H   0  0  0  0  0  0  0  0  0  0  0  0
   -2.2922    4.0313   -0.5361 H   0  0  0  0  0  0  0  0  0  0  0  0
   -1.3967    3.9458    0.9998 H   0  0  0  0  0  0  0  0  0  0  0  0
   -0.5431    4.3597   -0.5063 H   0  0  0  0  0  0  0  0  0  0  0  0
    2.8440    1.5109    0.9990 H   0  0  0  0  0  0  0  0  0  0  0  0
    2.5779   -2.2866   -0.9246 H   0  0  0  0  0  0  0  0  0  0  0  0
    5.1385   -2.0226    0.9550 H   0  0  0  0  0  0  0  0  0  0  0  0
    6.5180   -0.9493    0.6187 H   0  0  0  0  0  0  0  0  0  0  0  0
    5.2495   -0.4378    1.7578 H   0  0  0  0  0  0  0  0  0  0  0  0
 13 16  1  0  0  0  0
 14 16  1  0  0  0  0
 15 16  1  0  0  0  0
 16 17  2  0  0  0  0
 10 13  1  0  0  0  0
  5 14  1  0  0  0  0
  6 15  1  0  0  0  0
  1 10  2  0  0  0  0
  2 10  1  0  0  0  0
  5  7  1  0  0  0  0
  6  8  1  0  0  0  0
  1  3  1  0  0  0  0
  2  4  2  0  0  0  0
  3 11  2  0  0  0  0
  4 11  1  0  0  0  0
 11 18  1  0  0  0  0
  9 18  1  0  0  0  0
 12 18  2  0  0  0  0
  5 19  1  0  0  0  0
  5 20  1  0  0  0  0
  6 21  1  0  0  0  0
  6 22  1  0  0  0  0
  1 23  1  0  0  0  0
  2 24  1  0  0  0  0
  7 25  1  0  0  0  0
  7 26  1  0  0  0  0
  7 27  1  0  0  0  0
  8 28  1  0  0  0  0
  8 29  1  0  0  0  0
  8 30  1  0  0  0  0
  3 31  1  0  0  0  0
  4 32  1  0  0  0  0
  9 33  1  0  0  0  0
  9 34  1  0  0  0  0
  9 35  1  0  0  0  0
M  END
$$$$
