C10H15O3PS2
APtclcactv12211717273D 0   0.00000     0.00000
 
 31 31  0  0  0  0  0  0  0  0999 V2000
    0.7360    1.2784    0.5679 C   0  0  0  0  0  0  0  0  0  0  0  0
    0.7948   -1.0855    0.9963 C   0  0  0  0  0  0  0  0  0  0  0  0
    2.1042   -1.1332    0.5610 C   0  0  0  0  0  0  0  0  0  0  0  0
    2.7278    2.4921   -0.3377 C   0  0  0  0  0  0  0  0  0  0  0  0
   -2.9232   -2.1245   -1.3141 C   0  0  0  0  0  0  0  0  0  0  0  0
   -4.8310    0.5962   -0.0883 C   0  0  0  0  0  0  0  0  0  0  0  0
    4.8353   -1.7850   -0.2420 C   0  0  0  0  0  0  0  0  0  0  0  0
    0.1082    0.1200    1.0007 C   0  0  0  0  0  0  0  0  0  0  0  0
    2.0457    1.2331    0.1320 C   0  0  0  0  0  0  0  0  0  0  0  0
    2.7342    0.0267    0.1272 C   0  0  0  0  0  0  0  0  0  0  0  0
   -1.1815    0.1659    1.4302 O   0  0  0  0  0  0  0  0  0  0  0  0
   -2.3050   -1.6336   -0.1229 O   0  0  0  0  0  0  0  0  0  0  0  0
   -3.7212    0.3860    0.7870 O   0  0  0  0  0  0  0  0  0  0  0  0
   -2.2681   -0.0717    0.2662 P   0  0  0  0  0  0  0  0  0  0  0  0
    4.4053   -0.0325   -0.4282 S   0  0  0  0  0  0  0  0  0  0  0  0
   -1.8014    0.9312   -1.2334 S   0  0  0  0  0  0  0  0  0  0  0  0
    0.1991    2.2155    0.5676 H   0  0  0  0  0  0  0  0  0  0  0  0
    0.3049   -1.9870    1.3335 H   0  0  0  0  0  0  0  0  0  0  0  0
    2.6385   -2.0718    0.5576 H   0  0  0  0  0  0  0  0  0  0  0  0
    3.2174    2.9769    0.5069 H   0  0  0  0  0  0  0  0  0  0  0  0
    3.4717    2.2418   -1.0941 H   0  0  0  0  0  0  0  0  0  0  0  0
    1.9878    3.1683   -0.7658 H   0  0  0  0  0  0  0  0  0  0  0  0
   -2.8197   -3.2087   -1.3568 H   0  0  0  0  0  0  0  0  0  0  0  0
   -3.9807   -1.8603   -1.3100 H   0  0  0  0  0  0  0  0  0  0  0  0
   -2.4407   -1.6789   -2.1840 H   0  0  0  0  0  0  0  0  0  0  0  0
   -5.7008    0.8999    0.4943 H   0  0  0  0  0  0  0  0  0  0  0  0
   -4.5841    1.3778   -0.8068 H   0  0  0  0  0  0  0  0  0  0  0  0
   -5.0547   -0.3286   -0.6199 H   0  0  0  0  0  0  0  0  0  0  0  0
    4.7306   -2.0757    0.8033 H   0  0  0  0  0  0  0  0  0  0  0  0
    4.1681   -2.3900   -0.8559 H   0  0  0  0  0  0  0  0  0  0  0  0
    5.8655   -1.9422   -0.5614 H   0  0  0  0  0  0  0  0  0  0  0  0
  8 11  1  0  0  0  0
  1  8  2  0  0  0  0
  2  8  1  0  0  0  0
 11 14  1  0  0  0  0
  1  9  1  0  0  0  0
  2  3  2  0  0  0  0
 12 14  1  0  0  0  0
 13 14  1  0  0  0  0
 14 16  2  0  0  0  0
  9 10  2  0  0  0  0
  4  9  1  0  0  0  0
  5 12  1  0  0  0  0
  6 13  1  0  0  0  0
 10 15  1  0  0  0  0
  7 15  1  0  0  0  0
  3 10  1  0  0  0  0
  1 17  1  0  0  0  0
  2 18  1  0  0  0  0
  3 19  1  0  0  0  0
  4 20  1  0  0  0  0
  4 21  1  0  0  0  0
  4 22  1  0  0  0  0
  5 23  1  0  0  0  0
  5 24  1  0  0  0  0
  5 25  1  0  0  0  0
  6 26  1  0  0  0  0
  6 27  1  0  0  0  0
  6 28  1  0  0  0  0
  7 29  1  0  0  0  0
  7 30  1  0  0  0  0
  7 31  1  0  0  0  0
M  END
$$$$
