C17H12ClNO2S
APtclcactv12211717363D 0   0.00000     0.00000
 
 34 36  0  0  0  0  0  0  0  0999 V2000
    1.6488    1.7477   -0.6447 C   0  0  0  0  0  0  0  0  0  0  0  0
    2.4158   -0.2961    0.3793 C   0  0  0  0  0  0  0  0  0  0  0  0
    2.9230    2.2683   -0.5474 C   0  0  0  0  0  0  0  0  0  0  0  0
    3.6867    0.2334    0.4717 C   0  0  0  0  0  0  0  0  0  0  0  0
   -3.6109    1.9986    0.4032 C   0  0  0  0  0  0  0  0  0  0  0  0
   -4.6979   -0.0906   -0.1251 C   0  0  0  0  0  0  0  0  0  0  0  0
   -4.8450    2.5828    0.6007 C   0  0  0  0  0  0  0  0  0  0  0  0
   -5.9258    0.5056    0.0754 C   0  0  0  0  0  0  0  0  0  0  0  0
   -6.0000    1.8387    0.4379 C   0  0  0  0  0  0  0  0  0  0  0  0
    0.8481   -2.4188   -0.9409 C   0  0  0  0  0  0  0  0  0  0  0  0
    0.0193   -0.1047   -0.2826 C   0  0  0  0  0  0  0  0  0  0  0  0
   -0.2065   -1.3904   -0.6225 C   0  0  0  0  0  0  0  0  0  0  0  0
    1.3875    0.4597   -0.1808 C   0  0  0  0  0  0  0  0  0  0  0  0
   -2.2096    0.0218   -0.1758 C   0  0  0  0  0  0  0  0  0  0  0  0
   -3.5291    0.6543    0.0380 C   0  0  0  0  0  0  0  0  0  0  0  0
    3.9411    1.5133    0.0095 C   0  0  0  0  0  0  0  0  0  0  0  0
    0.7351   -2.8372    1.3751 O   0  0  0  0  0  0  0  0  0  0  0  0
    2.1836   -4.0976    0.2812 O   0  0  0  0  0  0  0  0  0  0  0  0
    1.2512   -3.1329    0.3234 C   0  0  0  0  0  0  0  0  0  0  0  0
    2.4092   -4.5271    1.1177 H   0  0  0  0  0  0  0  0  0  0  0  0
    5.5423    2.1735    0.1280 Cl  0  0  0  0  0  0  0  0  0  0  0  0
   -1.0612    0.6185   -0.0520 N   0  0  0  0  0  0  0  0  0  0  0  0
   -1.9481   -1.6593   -0.6309 S   0  0  0  0  0  0  0  0  0  0  0  0
    0.4488   -3.1399   -1.6540 H   0  0  0  0  0  0  0  0  0  0  0  0
    1.7186   -1.9248   -1.3725 H   0  0  0  0  0  0  0  0  0  0  0  0
    0.8543    2.3390   -1.0755 H   0  0  0  0  0  0  0  0  0  0  0  0
    2.2184   -1.2949    0.7398 H   0  0  0  0  0  0  0  0  0  0  0  0
    3.1265    3.2663   -0.9065 H   0  0  0  0  0  0  0  0  0  0  0  0
    4.4842   -0.3515    0.9056 H   0  0  0  0  0  0  0  0  0  0  0  0
   -2.7102    2.5816    0.5266 H   0  0  0  0  0  0  0  0  0  0  0  0
   -4.6413   -1.1315   -0.4073 H   0  0  0  0  0  0  0  0  0  0  0  0
   -4.9097    3.6232    0.8834 H   0  0  0  0  0  0  0  0  0  0  0  0
   -6.8311   -0.0697   -0.0508 H   0  0  0  0  0  0  0  0  0  0  0  0
   -6.9636    2.3006    0.5940 H   0  0  0  0  0  0  0  0  0  0  0  0
 11 12  2  0  0  0  0
 11 13  1  0  0  0  0
 11 22  1  0  0  0  0
 12 23  1  0  0  0  0
 10 12  1  0  0  0  0
  1 13  1  0  0  0  0
  2 13  2  0  0  0  0
 14 22  2  0  0  0  0
 10 19  1  0  0  0  0
  1  3  2  0  0  0  0
  2  4  1  0  0  0  0
 14 15  1  0  0  0  0
 18 19  1  0  0  0  0
 17 19  2  0  0  0  0
  3 16  1  0  0  0  0
  5 15  2  0  0  0  0
  6 15  1  0  0  0  0
 16 21  1  0  0  0  0
  5  7  1  0  0  0  0
  6  8  2  0  0  0  0
  7  9  2  0  0  0  0
 14 23  1  0  0  0  0
  4 16  2  0  0  0  0
  8  9  1  0  0  0  0
 10 24  1  0  0  0  0
 10 25  1  0  0  0  0
  1 26  1  0  0  0  0
  2 27  1  0  0  0  0
  3 28  1  0  0  0  0
  4 29  1  0  0  0  0
 18 20  1  0  0  0  0
  5 30  1  0  0  0  0
  6 31  1  0  0  0  0
  7 32  1  0  0  0  0
  8 33  1  0  0  0  0
  9 34  1  0  0  0  0
M  END
$$$$
