C9H12N2O
APtclcactv12151716483D 0   0.00000     0.00000
 
 24 24  0  0  0  0  0  0  0  0999 V2000
    1.8587   -1.3187    0.2807 C   0  0  0  0  0  0  0  0  0  0  0  0
    1.3778    0.9220   -0.4438 C   0  0  0  0  0  0  0  0  0  0  0  0
    3.1956   -0.9913    0.3947 C   0  0  0  0  0  0  0  0  0  0  0  0
    2.7161    1.2431   -0.3277 C   0  0  0  0  0  0  0  0  0  0  0  0
    3.6240    0.2879    0.0910 C   0  0  0  0  0  0  0  0  0  0  0  0
   -3.6831    0.8796    0.3324 C   0  0  0  0  0  0  0  0  0  0  0  0
   -3.0485   -1.4862   -0.3302 C   0  0  0  0  0  0  0  0  0  0  0  0
   -0.6712   -1.5779   -0.5487 H   0  0  0  0  0  0  0  0  0  0  0  0
    0.9444   -0.3617   -0.1395 C   0  0  0  0  0  0  0  0  0  0  0  0
   -1.0299    1.3628    0.3221 O   0  0  0  0  0  0  0  0  0  0  0  0
   -1.3544    0.2263    0.0367 C   0  0  0  0  0  0  0  0  0  0  0  0
   -0.4109   -0.6904   -0.2565 N   0  0  0  0  0  0  0  0  0  0  0  0
   -2.6575   -0.1168    0.0137 N   0  0  0  0  0  0  0  0  0  0  0  0
    1.5254   -2.3192    0.5138 H   0  0  0  0  0  0  0  0  0  0  0  0
    0.6692    1.6685   -0.7709 H   0  0  0  0  0  0  0  0  0  0  0  0
   -3.9893    1.3906   -0.5804 H   0  0  0  0  0  0  0  0  0  0  0  0
   -4.5454    0.3837    0.7780 H   0  0  0  0  0  0  0  0  0  0  0  0
   -3.2775    1.6059    1.0368 H   0  0  0  0  0  0  0  0  0  0  0  0
   -3.0935   -2.0897    0.5764 H   0  0  0  0  0  0  0  0  0  0  0  0
   -4.0279   -1.4752   -0.8084 H   0  0  0  0  0  0  0  0  0  0  0  0
   -2.3148   -1.9125   -1.0144 H   0  0  0  0  0  0  0  0  0  0  0  0
    3.9071   -1.7350    0.7218 H   0  0  0  0  0  0  0  0  0  0  0  0
    3.0538    2.2412   -0.5646 H   0  0  0  0  0  0  0  0  0  0  0  0
    4.6699    0.5416    0.1813 H   0  0  0  0  0  0  0  0  0  0  0  0
 11 12  1  0  0  0  0
 11 13  1  0  0  0  0
 10 11  2  0  0  0  0
  9 12  1  0  0  0  0
  1  9  2  0  0  0  0
  2  9  1  0  0  0  0
  6 13  1  0  0  0  0
  7 13  1  0  0  0  0
  1  3  1  0  0  0  0
  2  4  2  0  0  0  0
  3  5  2  0  0  0  0
  4  5  1  0  0  0  0
  8 12  1  0  0  0  0
  1 14  1  0  0  0  0
  2 15  1  0  0  0  0
  6 16  1  0  0  0  0
  6 17  1  0  0  0  0
  6 18  1  0  0  0  0
  7 19  1  0  0  0  0
  7 20  1  0  0  0  0
  7 21  1  0  0  0  0
  3 22  1  0  0  0  0
  4 23  1  0  0  0  0
  5 24  1  0  0  0  0
M  END
$$$$
