C10H10O4
APtclcactv12211717223D 0   0.00000     0.00000
 
 24 24  0  0  0  0  0  0  0  0999 V2000
    0.9698   -0.8149    0.0029 C   0  0  0  0  0  0  0  0  0  0  0  0
    0.0944    1.4435    0.0116 C   0  0  0  0  0  0  0  0  0  0  0  0
    1.3797    1.9385    0.0164 C   0  0  0  0  0  0  0  0  0  0  0  0
    3.0322   -2.5575   -0.0010 C   0  0  0  0  0  0  0  0  0  0  0  0
    4.0960    1.7106   -0.8617 H   0  0  0  0  0  0  0  0  0  0  0  0
   -0.1224    0.0607    0.0048 C   0  0  0  0  0  0  0  0  0  0  0  0
    2.2549   -0.3098    0.0078 C   0  0  0  0  0  0  0  0  0  0  0  0
    2.4626    1.0691    0.0150 C   0  0  0  0  0  0  0  0  0  0  0  0
   -4.0537   -1.3381   -0.0107 O   0  0  0  0  0  0  0  0  0  0  0  0
   -4.9186    0.7098   -0.0026 O   0  0  0  0  0  0  0  0  0  0  0  0
    3.7277    1.5632    0.0202 O   0  0  0  0  0  0  0  0  0  0  0  0
   -3.8672   -0.1360   -0.0044 C   0  0  0  0  0  0  0  0  0  0  0  0
    3.3184   -1.1574    0.0060 O   0  0  0  0  0  0  0  0  0  0  0  0
   -5.7788    0.2680   -0.0066 H   0  0  0  0  0  0  0  0  0  0  0  0
   -1.4926   -0.4704   -0.0008 C   0  0  0  0  0  0  0  0  0  0  0  0
   -2.5453    0.3764    0.0010 C   0  0  0  0  0  0  0  0  0  0  0  0
   -1.6581   -1.5376   -0.0064 H   0  0  0  0  0  0  0  0  0  0  0  0
   -2.3798    1.4436    0.0066 H   0  0  0  0  0  0  0  0  0  0  0  0
    0.8077   -1.8827    0.0022 H   0  0  0  0  0  0  0  0  0  0  0  0
   -0.7458    2.1220    0.0134 H   0  0  0  0  0  0  0  0  0  0  0  0
    1.5459    3.0056    0.0213 H   0  0  0  0  0  0  0  0  0  0  0  0
    3.9663   -3.1193   -0.0018 H   0  0  0  0  0  0  0  0  0  0  0  0
    2.4543   -2.8146    0.8866 H   0  0  0  0  0  0  0  0  0  0  0  0
    2.4578   -2.8064   -0.8933 H   0  0  0  0  0  0  0  0  0  0  0  0
 15 16  2  0  0  0  0
  6 15  1  0  0  0  0
 12 16  1  0  0  0  0
  1  6  2  0  0  0  0
  2  6  1  0  0  0  0
 10 12  1  0  0  0  0
  9 12  2  0  0  0  0
  1  7  1  0  0  0  0
  2  3  2  0  0  0  0
  7 13  1  0  0  0  0
  7  8  2  0  0  0  0
  3  8  1  0  0  0  0
  4 13  1  0  0  0  0
  8 11  1  0  0  0  0
 15 17  1  0  0  0  0
 16 18  1  0  0  0  0
  1 19  1  0  0  0  0
  2 20  1  0  0  0  0
 10 14  1  0  0  0  0
  3 21  1  0  0  0  0
  4 22  1  0  0  0  0
  4 23  1  0  0  0  0
  4 24  1  0  0  0  0
  5 11  1  0  0  0  0
M  END
$$$$
