C14H10F3NO2
APtclcactv12091702563D 0   0.00000     0.00000
 
 30 31  0  0  0  0  0  0  0  0999 V2000
    2.8936   -1.9121    0.6254 C   0  0  0  0  0  0  0  0  0  0  0  0
    4.2248    0.3375   -0.3247 C   0  0  0  0  0  0  0  0  0  0  0  0
    4.1898   -2.0100    0.1623 C   0  0  0  0  0  0  0  0  0  0  0  0
    4.8528   -0.8886   -0.3107 C   0  0  0  0  0  0  0  0  0  0  0  0
   -1.4156   -0.2938    0.6364 C   0  0  0  0  0  0  0  0  0  0  0  0
    0.1115   -0.6748   -1.1812 C   0  0  0  0  0  0  0  0  0  0  0  0
   -0.9398   -0.6085   -2.0738 C   0  0  0  0  0  0  0  0  0  0  0  0
   -2.2255   -0.3852   -1.6151 C   0  0  0  0  0  0  0  0  0  0  0  0
    0.7643   -0.5587    2.0391 H   0  0  0  0  0  0  0  0  0  0  0  0
    2.2433   -0.6845    0.6199 C   0  0  0  0  0  0  0  0  0  0  0  0
    2.9122    0.4538    0.1409 C   0  0  0  0  0  0  0  0  0  0  0  0
   -0.1232   -0.5174    0.1792 C   0  0  0  0  0  0  0  0  0  0  0  0
   -2.4627   -0.2286   -0.2620 C   0  0  0  0  0  0  0  0  0  0  0  0
    1.1198    1.8726    0.5997 O   0  0  0  0  0  0  0  0  0  0  0  0
    2.8520    2.8356   -0.4017 O   0  0  0  0  0  0  0  0  0  0  0  0
    2.2349    1.7618    0.1297 C   0  0  0  0  0  0  0  0  0  0  0  0
    2.3677    3.6725   -0.3862 H   0  0  0  0  0  0  0  0  0  0  0  0
   -4.1162    1.3898    0.2674 F   0  0  0  0  0  0  0  0  0  0  0  0
   -4.7774   -0.6052   -0.6281 F   0  0  0  0  0  0  0  0  0  0  0  0
   -4.0040   -0.5176    1.5197 F   0  0  0  0  0  0  0  0  0  0  0  0
   -3.8652    0.0140    0.2331 C   0  0  0  0  0  0  0  0  0  0  0  0
    0.9385   -0.5835    1.0852 N   0  0  0  0  0  0  0  0  0  0  0  0
    2.3827   -2.7917    0.9885 H   0  0  0  0  0  0  0  0  0  0  0  0
    4.7464    1.2079   -0.6944 H   0  0  0  0  0  0  0  0  0  0  0  0
    4.6910   -2.9666    0.1687 H   0  0  0  0  0  0  0  0  0  0  0  0
    5.8673   -0.9765   -0.6705 H   0  0  0  0  0  0  0  0  0  0  0  0
   -1.6022   -0.1755    1.6936 H   0  0  0  0  0  0  0  0  0  0  0  0
    1.1152   -0.8491   -1.5400 H   0  0  0  0  0  0  0  0  0  0  0  0
   -0.7581   -0.7307   -3.1313 H   0  0  0  0  0  0  0  0  0  0  0  0
   -3.0461   -0.3342   -2.3154 H   0  0  0  0  0  0  0  0  0  0  0  0
 10 11  1  0  0  0  0
 10 22  1  0  0  0  0
  1 10  2  0  0  0  0
  2 11  2  0  0  0  0
 11 16  1  0  0  0  0
 12 22  1  0  0  0  0
  1  3  1  0  0  0  0
  2  4  1  0  0  0  0
 15 16  1  0  0  0  0
 14 16  2  0  0  0  0
  5 12  2  0  0  0  0
  6 12  1  0  0  0  0
  5 13  1  0  0  0  0
  6  7  2  0  0  0  0
  8 13  2  0  0  0  0
 13 21  1  0  0  0  0
 18 21  1  0  0  0  0
 19 21  1  0  0  0  0
 20 21  1  0  0  0  0
  3  4  2  0  0  0  0
  7  8  1  0  0  0  0
  9 22  1  0  0  0  0
  1 23  1  0  0  0  0
  2 24  1  0  0  0  0
  3 25  1  0  0  0  0
  4 26  1  0  0  0  0
 15 17  1  0  0  0  0
  5 27  1  0  0  0  0
  6 28  1  0  0  0  0
  7 29  1  0  0  0  0
  8 30  1  0  0  0  0
M  END
$$$$
