C10H11F3N2O
APtclcactv12211717223D 0   0.00000     0.00000
 
 27 27  0  0  0  0  0  0  0  0999 V2000
    0.7212   -0.4696    0.0944 C   0  0  0  0  0  0  0  0  0  0  0  0
   -0.4707    1.5872    0.4494 C   0  0  0  0  0  0  0  0  0  0  0  0
    0.7239    2.2796    0.4266 C   0  0  0  0  0  0  0  0  0  0  0  0
    1.9145    1.6014    0.2384 C   0  0  0  0  0  0  0  0  0  0  0  0
   -5.2285    0.1338   -0.4357 C   0  0  0  0  0  0  0  0  0  0  0  0
   -4.0551   -1.8839    0.5596 C   0  0  0  0  0  0  0  0  0  0  0  0
   -1.7152   -1.3958    0.6669 H   0  0  0  0  0  0  0  0  0  0  0  0
   -0.4757    0.2083    0.2832 C   0  0  0  0  0  0  0  0  0  0  0  0
    1.9128    0.2288    0.0726 C   0  0  0  0  0  0  0  0  0  0  0  0
   -2.7460    1.1459   -0.7484 O   0  0  0  0  0  0  0  0  0  0  0  0
   -2.8065    0.0751   -0.1756 C   0  0  0  0  0  0  0  0  0  0  0  0
   -1.6846   -0.4963    0.3054 N   0  0  0  0  0  0  0  0  0  0  0  0
    3.4985   -0.5764   -1.4994 F   0  0  0  0  0  0  0  0  0  0  0  0
    4.2421    0.1756    0.5257 F   0  0  0  0  0  0  0  0  0  0  0  0
    3.1032   -1.8001    0.3888 F   0  0  0  0  0  0  0  0  0  0  0  0
    3.2125   -0.5062   -0.1317 C   0  0  0  0  0  0  0  0  0  0  0  0
   -3.9956   -0.5405   -0.0217 N   0  0  0  0  0  0  0  0  0  0  0  0
    0.7210   -1.5423   -0.0307 H   0  0  0  0  0  0  0  0  0  0  0  0
   -1.4000    2.1173    0.5968 H   0  0  0  0  0  0  0  0  0  0  0  0
   -5.4435   -0.1088   -1.4764 H   0  0  0  0  0  0  0  0  0  0  0  0
   -6.0539   -0.1999    0.1932 H   0  0  0  0  0  0  0  0  0  0  0  0
   -5.1055    1.2119   -0.3320 H   0  0  0  0  0  0  0  0  0  0  0  0
   -3.0431   -2.2576    0.7153 H   0  0  0  0  0  0  0  0  0  0  0  0
   -4.5785   -1.8436    1.5149 H   0  0  0  0  0  0  0  0  0  0  0  0
   -4.5881   -2.5501   -0.1189 H   0  0  0  0  0  0  0  0  0  0  0  0
    0.7284    3.3519    0.5555 H   0  0  0  0  0  0  0  0  0  0  0  0
    2.8474    2.1452    0.2209 H   0  0  0  0  0  0  0  0  0  0  0  0
 11 12  1  0  0  0  0
  8 12  1  0  0  0  0
 11 17  1  0  0  0  0
 10 11  2  0  0  0  0
  1  8  2  0  0  0  0
  2  8  1  0  0  0  0
  5 17  1  0  0  0  0
  6 17  1  0  0  0  0
  1  9  1  0  0  0  0
  2  3  2  0  0  0  0
  9 16  1  0  0  0  0
  4  9  2  0  0  0  0
  3  4  1  0  0  0  0
 13 16  1  0  0  0  0
 14 16  1  0  0  0  0
 15 16  1  0  0  0  0
  7 12  1  0  0  0  0
  1 18  1  0  0  0  0
  2 19  1  0  0  0  0
  5 20  1  0  0  0  0
  5 21  1  0  0  0  0
  5 22  1  0  0  0  0
  6 23  1  0  0  0  0
  6 24  1  0  0  0  0
  6 25  1  0  0  0  0
  3 26  1  0  0  0  0
  4 27  1  0  0  0  0
M  END
$$$$
