C10H11F3N2O3S
APtclcactv12211717223D 0   0.00000     0.00000
 
 30 30  0  0  0  0  0  0  0  0999 V2000
    0.7957    0.0917    0.4698 C   0  0  0  0  0  0  0  0  0  0  0  0
    1.6542   -2.3405   -0.5512 C   0  0  0  0  0  0  0  0  0  0  0  0
    2.4913   -1.2418   -0.5908 C   0  0  0  0  0  0  0  0  0  0  0  0
   -0.5188   -3.4314    0.0375 C   0  0  0  0  0  0  0  0  0  0  0  0
    5.1446    2.1356    0.0847 C   0  0  0  0  0  0  0  0  0  0  0  0
   -1.7018   -1.6467    1.5536 H   0  0  0  0  0  0  0  0  0  0  0  0
    2.5447    1.9750   -0.2686 H   0  0  0  0  0  0  0  0  0  0  0  0
   -0.0427   -1.0133    0.5082 C   0  0  0  0  0  0  0  0  0  0  0  0
    0.3906   -2.2304   -0.0042 C   0  0  0  0  0  0  0  0  0  0  0  0
    2.0643   -0.0225   -0.0804 C   0  0  0  0  0  0  0  0  0  0  0  0
   -1.3255    1.5086    1.3894 O   0  0  0  0  0  0  0  0  0  0  0  0
   -3.4357    0.2213    1.4906 O   0  0  0  0  0  0  0  0  0  0  0  0
    4.7085   -0.1826    0.1586 O   0  0  0  0  0  0  0  0  0  0  0  0
    4.2407    0.9305    0.0434 C   0  0  0  0  0  0  0  0  0  0  0  0
    2.9126    1.0896   -0.1214 N   0  0  0  0  0  0  0  0  0  0  0  0
   -3.0670   -0.4302   -1.4237 F   0  0  0  0  0  0  0  0  0  0  0  0
   -1.1184    0.7586   -1.5172 F   0  0  0  0  0  0  0  0  0  0  0  0
   -3.1032    1.8424   -1.1928 F   0  0  0  0  0  0  0  0  0  0  0  0
   -2.3793    0.6775   -0.9166 C   0  0  0  0  0  0  0  0  0  0  0  0
   -1.3204   -0.9028    1.0616 N   0  0  0  0  0  0  0  0  0  0  0  0
   -2.1839    0.4983    0.8779 S   0  0  0  0  0  0  0  0  0  0  0  0
    0.4598    1.0398    0.8633 H   0  0  0  0  0  0  0  0  0  0  0  0
    1.9885   -3.2872   -0.9491 H   0  0  0  0  0  0  0  0  0  0  0  0
    3.4788   -1.3313   -1.0189 H   0  0  0  0  0  0  0  0  0  0  0  0
   -1.1153   -3.4672   -0.8741 H   0  0  0  0  0  0  0  0  0  0  0  0
    0.0805   -4.3385    0.1154 H   0  0  0  0  0  0  0  0  0  0  0  0
   -1.1794   -3.3571    0.9013 H   0  0  0  0  0  0  0  0  0  0  0  0
    6.1760    1.8116    0.2235 H   0  0  0  0  0  0  0  0  0  0  0  0
    5.0596    2.6858   -0.8524 H   0  0  0  0  0  0  0  0  0  0  0  0
    4.8519    2.7811    0.9128 H   0  0  0  0  0  0  0  0  0  0  0  0
 11 21  2  0  0  0  0
 12 21  2  0  0  0  0
 20 21  1  0  0  0  0
 19 21  1  0  0  0  0
 16 19  1  0  0  0  0
 17 19  1  0  0  0  0
 18 19  1  0  0  0  0
 13 14  2  0  0  0  0
  8 20  1  0  0  0  0
 10 15  1  0  0  0  0
 14 15  1  0  0  0  0
  8  9  1  0  0  0  0
  1  8  2  0  0  0  0
  2  9  2  0  0  0  0
  4  9  1  0  0  0  0
  1 10  1  0  0  0  0
  3 10  2  0  0  0  0
  2  3  1  0  0  0  0
  5 14  1  0  0  0  0
  6 20  1  0  0  0  0
  7 15  1  0  0  0  0
  1 22  1  0  0  0  0
  2 23  1  0  0  0  0
  3 24  1  0  0  0  0
  4 25  1  0  0  0  0
  4 26  1  0  0  0  0
  4 27  1  0  0  0  0
  5 28  1  0  0  0  0
  5 29  1  0  0  0  0
  5 30  1  0  0  0  0
M  END
$$$$
