C6H5F
APtclcactv12211716503D 0   0.00000     0.00000
 
 12 12  0  0  0  0  0  0  0  0999 V2000
   -2.2197    0.0000   -0.0008 F   0  0  0  0  0  0  0  0  0  0  0  0
   -0.8687    0.0000   -0.0009 C   0  0  0  0  0  0  0  0  0  0  0  0
   -0.1759    1.1988    0.0003 C   0  0  0  0  0  0  0  0  0  0  0  0
    1.2061    1.1975    0.0006 C   0  0  0  0  0  0  0  0  0  0  0  0
    1.8968   -0.0000   -0.0003 C   0  0  0  0  0  0  0  0  0  0  0  0
    1.2061   -1.1975   -0.0020 C   0  0  0  0  0  0  0  0  0  0  0  0
   -0.1759   -1.1988    0.0034 C   0  0  0  0  0  0  0  0  0  0  0  0
   -0.7152    2.1345    0.0007 H   0  0  0  0  0  0  0  0  0  0  0  0
    1.7467    2.1325    0.0012 H   0  0  0  0  0  0  0  0  0  0  0  0
    2.9768   -0.0000   -0.0001 H   0  0  0  0  0  0  0  0  0  0  0  0
    1.7467   -2.1325   -0.0035 H   0  0  0  0  0  0  0  0  0  0  0  0
   -0.7153   -2.1344    0.0021 H   0  0  0  0  0  0  0  0  0  0  0  0
  1  2  1  0  0  0  0
  2  3  2  0  0  0  0
  3  4  1  0  0  0  0
  4  5  2  0  0  0  0
  5  6  1  0  0  0  0
  6  7  2  0  0  0  0
  2  7  1  0  0  0  0
  3  8  1  0  0  0  0
  4  9  1  0  0  0  0
  5 10  1  0  0  0  0
  6 11  1  0  0  0  0
  7 12  1  0  0  0  0
M  END
$$$$
