C18H13ClF3NO7
APtclcactv12211717153D 0   0.00000     0.00000
 
 43 44  0  0  0  0  0  0  0  0999 V2000
   -0.5958    1.5532    0.7828 C   0  0  0  0  0  0  0  0  0  0  0  0
   -0.7661    3.6977   -0.9752 C   0  0  0  0  0  0  0  0  0  0  0  0
    0.4420    3.3792   -0.3834 C   0  0  0  0  0  0  0  0  0  0  0  0
    1.9448    0.2646   -0.5396 C   0  0  0  0  0  0  0  0  0  0  0  0
    4.3931   -0.4175    0.5596 C   0  0  0  0  0  0  0  0  0  0  0  0
    2.6764   -0.7789   -1.0728 C   0  0  0  0  0  0  0  0  0  0  0  0
   -4.2251   -0.9830    0.6246 C   0  0  0  0  0  0  0  0  0  0  0  0
   -4.7519   -4.7208    0.3165 C   0  0  0  0  0  0  0  0  0  0  0  0
   -5.9999   -5.5492    0.6282 C   0  0  0  0  0  0  0  0  0  0  0  0
   -1.8162    1.8738    0.1863 C   0  0  0  0  0  0  0  0  0  0  0  0
   -1.8939    2.9530   -0.6961 C   0  0  0  0  0  0  0  0  0  0  0  0
    0.5294    2.3073    0.4954 C   0  0  0  0  0  0  0  0  0  0  0  0
    2.4375    0.9714    0.5478 C   0  0  0  0  0  0  0  0  0  0  0  0
    3.6653    0.6277    1.0973 C   0  0  0  0  0  0  0  0  0  0  0  0
    3.8991   -1.1196   -0.5240 C   0  0  0  0  0  0  0  0  0  0  0  0
   -4.0265    1.6202    0.8957 O   0  0  0  0  0  0  0  0  0  0  0  0
   -3.2837    4.3127   -1.9988 O   0  0  0  0  0  0  0  0  0  0  0  0
   -2.9555   -2.8518   -0.0443 O   0  0  0  0  0  0  0  0  0  0  0  0
   -3.0213    1.0740    0.4872 C   0  0  0  0  0  0  0  0  0  0  0  0
   -4.0202   -2.4533    0.3650 C   0  0  0  0  0  0  0  0  0  0  0  0
   -3.0055   -0.2612    0.3087 O   0  0  0  0  0  0  0  0  0  0  0  0
    1.7198    1.9987    1.0738 O   0  0  0  0  0  0  0  0  0  0  0  0
   -5.0204   -3.3200    0.5885 O   0  0  0  0  0  0  0  0  0  0  0  0
    4.2856    1.5089    2.4583 Cl  0  0  0  0  0  0  0  0  0  0  0  0
    4.3387   -3.4515   -0.4700 F   0  0  0  0  0  0  0  0  0  0  0  0
    4.4233   -2.3630   -2.4768 F   0  0  0  0  0  0  0  0  0  0  0  0
    6.0599   -2.0183   -0.9205 F   0  0  0  0  0  0  0  0  0  0  0  0
   -4.1497    2.5686   -1.1871 O   0  5  0  0  0  0  0  0  0  0  0  0
    4.6945   -2.2585   -1.1083 C   0  0  0  0  0  0  0  0  0  0  0  0
   -3.1854    3.2985   -1.3315 N   0  3  0  0  0  0  0  0  0  0  0  0
   -0.5302    0.7223    1.4696 H   0  0  0  0  0  0  0  0  0  0  0  0
   -0.8275    4.5323   -1.6580 H   0  0  0  0  0  0  0  0  0  0  0  0
    1.3211    3.9659   -0.6054 H   0  0  0  0  0  0  0  0  0  0  0  0
   -5.0382   -0.6136   -0.0003 H   0  0  0  0  0  0  0  0  0  0  0  0
   -4.4757   -0.8309    1.6744 H   0  0  0  0  0  0  0  0  0  0  0  0
    0.9920    0.5327   -0.9717 H   0  0  0  0  0  0  0  0  0  0  0  0
    5.3485   -0.6854    0.9860 H   0  0  0  0  0  0  0  0  0  0  0  0
    2.2929   -1.3292   -1.9193 H   0  0  0  0  0  0  0  0  0  0  0  0
   -3.9253   -5.0602    0.9408 H   0  0  0  0  0  0  0  0  0  0  0  0
   -4.4878   -4.8429   -0.7339 H   0  0  0  0  0  0  0  0  0  0  0  0
   -5.7984   -6.6008    0.4240 H   0  0  0  0  0  0  0  0  0  0  0  0
   -6.2641   -5.4271    1.6786 H   0  0  0  0  0  0  0  0  0  0  0  0
   -6.8265   -5.2098    0.0039 H   0  0  0  0  0  0  0  0  0  0  0  0
 10 11  2  0  0  0  0
  1 10  1  0  0  0  0
 10 19  1  0  0  0  0
  2 11  1  0  0  0  0
 11 30  1  0  0  0  0
  1 12  2  0  0  0  0
 19 21  1  0  0  0  0
 16 19  2  0  0  0  0
  2  3  2  0  0  0  0
 17 30  2  0  0  0  0
 28 30  1  0  0  0  0
 12 22  1  0  0  0  0
  7 21  1  0  0  0  0
 13 22  1  0  0  0  0
  7 20  1  0  0  0  0
 13 14  2  0  0  0  0
  4 13  1  0  0  0  0
 20 23  1  0  0  0  0
 18 20  2  0  0  0  0
  5 14  1  0  0  0  0
 14 24  1  0  0  0  0
  4  6  2  0  0  0  0
  8 23  1  0  0  0  0
  5 15  2  0  0  0  0
  8  9  1  0  0  0  0
 15 29  1  0  0  0  0
 25 29  1  0  0  0  0
 26 29  1  0  0  0  0
 27 29  1  0  0  0  0
  3 12  1  0  0  0  0
  6 15  1  0  0  0  0
  1 31  1  0  0  0  0
  2 32  1  0  0  0  0
  3 33  1  0  0  0  0
  7 34  1  0  0  0  0
  7 35  1  0  0  0  0
  4 36  1  0  0  0  0
  5 37  1  0  0  0  0
  6 38  1  0  0  0  0
  8 39  1  0  0  0  0
  8 40  1  0  0  0  0
  9 41  1  0  0  0  0
  9 42  1  0  0  0  0
  9 43  1  0  0  0  0
M  CHG  2  28  -1  30   1
M  END
$$$$
