C15H17FN4O2
APtclcactv12211717073D 0   0.00000     0.00000
 
 39 40  0  0  0  0  0  0  0  0999 V2000
   -1.8184    0.5545    0.3696 C   0  0  0  0  0  0  0  0  0  0  0  0
   -0.4351    0.6272    0.3186 C   0  0  0  0  0  0  0  0  0  0  0  0
    4.4844    0.7628   -1.1101 C   0  0  0  0  0  0  0  0  0  0  0  0
    4.5963    0.2986    1.2369 C   0  0  0  0  0  0  0  0  0  0  0  0
    5.8505    0.5808   -1.2125 C   0  0  0  0  0  0  0  0  0  0  0  0
    5.9626    0.1166    1.1371 C   0  0  0  0  0  0  0  0  0  0  0  0
   -6.7096    1.3908   -0.1753 C   0  0  0  0  0  0  0  0  0  0  0  0
    2.3679    0.8210    0.2244 C   0  0  0  0  0  0  0  0  0  0  0  0
   -8.1950    1.1037    0.0525 C   0  0  0  0  0  0  0  0  0  0  0  0
   -4.2332   -1.6512    0.4045 H   0  0  0  0  0  0  0  0  0  0  0  0
   -3.1928   -3.1150   -0.2898 H   0  0  0  0  0  0  0  0  0  0  0  0
   -1.6772   -3.8093   -0.4985 H   0  0  0  0  0  0  0  0  0  0  0  0
    2.2037   -1.2571   -0.1792 H   0  0  0  0  0  0  0  0  0  0  0  0
   -2.4266   -0.6762    0.1554 C   0  0  0  0  0  0  0  0  0  0  0  0
   -1.6298   -1.7920   -0.1025 C   0  0  0  0  0  0  0  0  0  0  0  0
    0.2969   -0.5234    0.0569 C   0  0  0  0  0  0  0  0  0  0  0  0
    3.8576    0.6218    0.1140 C   0  0  0  0  0  0  0  0  0  0  0  0
    6.5914    0.2571   -0.0885 C   0  0  0  0  0  0  0  0  0  0  0  0
   -4.0960    1.3241   -0.4061 O   0  0  0  0  0  0  0  0  0  0  0  0
   -4.6014    0.2789   -0.0468 C   0  0  0  0  0  0  0  0  0  0  0  0
   -5.9366    0.1943    0.1064 O   0  0  0  0  0  0  0  0  0  0  0  0
   -2.2269   -3.0306   -0.3188 N   0  0  0  0  0  0  0  0  0  0  0  0
   -3.8255   -0.7955    0.1984 N   0  0  0  0  0  0  0  0  0  0  0  0
    7.9269    0.0784   -0.1874 F   0  0  0  0  0  0  0  0  0  0  0  0
    1.6866   -0.4571    0.0038 N   0  0  0  0  0  0  0  0  0  0  0  0
   -0.3110   -1.6836   -0.1439 N   0  0  0  0  0  0  0  0  0  0  0  0
   -2.4101    1.4342    0.5757 H   0  0  0  0  0  0  0  0  0  0  0  0
    0.0682    1.5690    0.4803 H   0  0  0  0  0  0  0  0  0  0  0  0
   -6.5520    1.6895   -1.2117 H   0  0  0  0  0  0  0  0  0  0  0  0
   -6.3891    2.1948    0.4873 H   0  0  0  0  0  0  0  0  0  0  0  0
    2.1241    1.1959    1.2184 H   0  0  0  0  0  0  0  0  0  0  0  0
    2.0410    1.5412   -0.5257 H   0  0  0  0  0  0  0  0  0  0  0  0
   -8.3526    0.8050    1.0889 H   0  0  0  0  0  0  0  0  0  0  0  0
   -8.7753    2.0018   -0.1590 H   0  0  0  0  0  0  0  0  0  0  0  0
   -8.5155    0.2997   -0.6101 H   0  0  0  0  0  0  0  0  0  0  0  0
    3.9070    1.0197   -1.9858 H   0  0  0  0  0  0  0  0  0  0  0  0
    4.1055    0.1887    2.1927 H   0  0  0  0  0  0  0  0  0  0  0  0
    6.3400    0.6906   -2.1689 H   0  0  0  0  0  0  0  0  0  0  0  0
    6.5396   -0.1352    2.0146 H   0  0  0  0  0  0  0  0  0  0  0  0
 14 15  1  0  0  0  0
  1 14  2  0  0  0  0
 14 23  1  0  0  0  0
 15 26  2  0  0  0  0
 15 22  1  0  0  0  0
  1  2  1  0  0  0  0
 20 23  1  0  0  0  0
 16 26  1  0  0  0  0
 20 21  1  0  0  0  0
 19 20  2  0  0  0  0
 16 25  1  0  0  0  0
  7 21  1  0  0  0  0
  8 25  1  0  0  0  0
  7  9  1  0  0  0  0
  8 17  1  0  0  0  0
  3 17  1  0  0  0  0
  4 17  2  0  0  0  0
  3  5  2  0  0  0  0
  4  6  1  0  0  0  0
  5 18  1  0  0  0  0
 18 24  1  0  0  0  0
  2 16  2  0  0  0  0
  6 18  2  0  0  0  0
  1 27  1  0  0  0  0
 10 23  1  0  0  0  0
 11 22  1  0  0  0  0
 12 22  1  0  0  0  0
  2 28  1  0  0  0  0
 13 25  1  0  0  0  0
  7 29  1  0  0  0  0
  7 30  1  0  0  0  0
  8 31  1  0  0  0  0
  8 32  1  0  0  0  0
  9 33  1  0  0  0  0
  9 34  1  0  0  0  0
  9 35  1  0  0  0  0
  3 36  1  0  0  0  0
  4 37  1  0  0  0  0
  5 38  1  0  0  0  0
  6 39  1  0  0  0  0
M  END
$$$$
