C4H5F3O
APtclcactv12211716373D 0   0.00000     0.00000
 
 13 12  0  0  0  0  0  0  0  0999 V2000
    0.1195   -0.8097    0.0000 C   0  0  0  0  0  0  0  0  0  0  0  0
    1.2322    0.0869   -0.0000 O   0  0  0  0  0  0  0  0  0  0  0  0
    2.4702   -0.4680    0.0000 C   0  0  0  0  0  0  0  0  0  0  0  0
   -1.2333    0.7997   -1.1423 F   0  0  0  0  0  0  0  0  0  0  0  0
   -2.2721   -0.8842    0.0000 F   0  0  0  0  0  0  0  0  0  0  0  0
   -1.2333    0.7997    1.1423 F   0  0  0  0  0  0  0  0  0  0  0  0
   -1.1827   -0.0064    0.0000 C   0  0  0  0  0  0  0  0  0  0  0  0
    3.5377    0.3035   -0.0000 C   0  0  0  0  0  0  0  0  0  0  0  0
    0.1589   -1.4378   -0.8900 H   0  0  0  0  0  0  0  0  0  0  0  0
    0.1589   -1.4378    0.8900 H   0  0  0  0  0  0  0  0  0  0  0  0
    2.5805   -1.5423    0.0000 H   0  0  0  0  0  0  0  0  0  0  0  0
    3.4274    1.3779   -0.0000 H   0  0  0  0  0  0  0  0  0  0  0  0
    4.5232   -0.1382   -0.0000 H   0  0  0  0  0  0  0  0  0  0  0  0
  1  7  1  0  0  0  0
  1  2  1  0  0  0  0
  4  7  1  0  0  0  0
  5  7  1  0  0  0  0
  6  7  1  0  0  0  0
  2  3  1  0  0  0  0
  3  8  2  0  0  0  0
  1  9  1  0  0  0  0
  1 10  1  0  0  0  0
  3 11  1  0  0  0  0
  8 12  1  0  0  0  0
  8 13  1  0  0  0  0
M  END
$$$$
