C15H13FO2
APtclcactv12211717063D 0   0.00000     0.00000
 
 31 32  0  0  0  0  0  0  0  0999 V2000
   -0.1564    1.2053    0.0328 C   0  0  0  0  0  0  0  0  0  0  0  0
   -3.1394    1.1869    0.7014 C   0  0  0  0  0  0  0  0  0  0  0  0
   -3.1421   -0.6008   -0.9158 C   0  0  0  0  0  0  0  0  0  0  0  0
    0.9525   -1.2957    0.4923 C   0  0  0  0  0  0  0  0  0  0  0  0
    1.2097    1.0682    0.1761 C   0  0  0  0  0  0  0  0  0  0  0  0
   -4.5057    1.3143    0.5540 C   0  0  0  0  0  0  0  0  0  0  0  0
   -4.5085   -0.4646   -1.0552 C   0  0  0  0  0  0  0  0  0  0  0  0
   -5.1892    0.4906   -0.3221 C   0  0  0  0  0  0  0  0  0  0  0  0
    3.7259    0.5203    1.7495 C   0  0  0  0  0  0  0  0  0  0  0  0
   -0.9796    0.0849    0.1192 C   0  0  0  0  0  0  0  0  0  0  0  0
   -2.4485    0.2263   -0.0346 C   0  0  0  0  0  0  0  0  0  0  0  0
   -0.4169   -1.1712    0.3505 C   0  0  0  0  0  0  0  0  0  0  0  0
    1.7631   -0.1786    0.4048 C   0  0  0  0  0  0  0  0  0  0  0  0
    3.2821    0.5709   -1.6204 O   0  0  0  0  0  0  0  0  0  0  0  0
    5.2780    0.1245   -0.7835 O   0  0  0  0  0  0  0  0  0  0  0  0
    3.9391    0.1578   -0.6944 C   0  0  0  0  0  0  0  0  0  0  0  0
    5.6711    0.4414   -1.6081 H   0  0  0  0  0  0  0  0  0  0  0  0
    3.2553   -0.3201    0.5607 C   0  0  0  0  0  0  0  0  0  0  0  0
   -1.2085   -2.2627    0.4351 F   0  0  0  0  0  0  0  0  0  0  0  0
   -0.5868    2.1804   -0.1416 H   0  0  0  0  0  0  0  0  0  0  0  0
   -2.6061    1.8334    1.3825 H   0  0  0  0  0  0  0  0  0  0  0  0
   -2.6116   -1.3472   -1.4884 H   0  0  0  0  0  0  0  0  0  0  0  0
    1.3900   -2.2666    0.6717 H   0  0  0  0  0  0  0  0  0  0  0  0
    1.8481    1.9368    0.1092 H   0  0  0  0  0  0  0  0  0  0  0  0
   -5.0423    2.0582    1.1242 H   0  0  0  0  0  0  0  0  0  0  0  0
   -5.0471   -1.1049   -1.7382 H   0  0  0  0  0  0  0  0  0  0  0  0
   -6.2584    0.5937   -0.4343 H   0  0  0  0  0  0  0  0  0  0  0  0
    3.5048   -1.3668    0.7343 H   0  0  0  0  0  0  0  0  0  0  0  0
    3.2313    0.1747    2.6572 H   0  0  0  0  0  0  0  0  0  0  0  0
    4.8052    0.4180    1.8622 H   0  0  0  0  0  0  0  0  0  0  0  0
    3.4764    1.5671    1.5758 H   0  0  0  0  0  0  0  0  0  0  0  0
 10 11  1  0  0  0  0
 10 12  1  0  0  0  0
  1 10  2  0  0  0  0
  2 11  2  0  0  0  0
  3 11  1  0  0  0  0
  4 12  2  0  0  0  0
 12 19  1  0  0  0  0
  1  5  1  0  0  0  0
  2  6  1  0  0  0  0
  3  7  2  0  0  0  0
  4 13  1  0  0  0  0
  6  8  2  0  0  0  0
 13 18  1  0  0  0  0
 16 18  1  0  0  0  0
  9 18  1  0  0  0  0
 15 16  1  0  0  0  0
 14 16  2  0  0  0  0
  5 13  2  0  0  0  0
  7  8  1  0  0  0  0
  1 20  1  0  0  0  0
  2 21  1  0  0  0  0
  3 22  1  0  0  0  0
  4 23  1  0  0  0  0
  5 24  1  0  0  0  0
  6 25  1  0  0  0  0
  7 26  1  0  0  0  0
  8 27  1  0  0  0  0
 18 28  1  0  0  0  0
  9 29  1  0  0  0  0
  9 30  1  0  0  0  0
  9 31  1  0  0  0  0
 15 17  1  0  0  0  0
M  END
$$$$
