C9H4Cl3NO2S
APtclcactv12151716413D 0   0.00000     0.00000
 
 20 21  0  0  0  0  0  0  0  0999 V2000
    3.5654   -1.3939    0.2457 C   0  0  0  0  0  0  0  0  0  0  0  0
    3.5657    1.3938    0.2456 C   0  0  0  0  0  0  0  0  0  0  0  0
    4.6967   -0.6913    0.6303 C   0  0  0  0  0  0  0  0  0  0  0  0
    4.6968    0.6910    0.6303 C   0  0  0  0  0  0  0  0  0  0  0  0
    0.6912   -2.2515   -0.7318 O   0  0  0  0  0  0  0  0  0  0  0  0
    0.6914    2.2518   -0.7317 O   0  0  0  0  0  0  0  0  0  0  0  0
    1.0812   -1.1091   -0.5989 C   0  0  0  0  0  0  0  0  0  0  0  0
    1.0814    1.1093   -0.5990 C   0  0  0  0  0  0  0  0  0  0  0  0
    2.4273   -0.7047   -0.1413 C   0  0  0  0  0  0  0  0  0  0  0  0
    2.4274    0.7048   -0.1413 C   0  0  0  0  0  0  0  0  0  0  0  0
   -1.7571    1.4720    1.1231 Cl  0  0  0  0  0  0  0  0  0  0  0  0
   -1.7571   -1.4723    1.1227 Cl  0  0  0  0  0  0  0  0  0  0  0  0
   -3.9243    0.0000   -0.2206 Cl  0  0  0  0  0  0  0  0  0  0  0  0
   -2.1629   -0.0000    0.1643 C   0  0  0  0  0  0  0  0  0  0  0  0
    0.3606    0.0001   -0.8440 N   0  0  0  0  0  0  0  0  0  0  0  0
   -1.2071    0.0002   -1.3775 S   0  0  0  0  0  0  0  0  0  0  0  0
    3.5724   -2.4739    0.2435 H   0  0  0  0  0  0  0  0  0  0  0  0
    3.5713    2.4737    0.2483 H   0  0  0  0  0  0  0  0  0  0  0  0
    5.5841   -1.2277    0.9324 H   0  0  0  0  0  0  0  0  0  0  0  0
    5.5845    1.2271    0.9317 H   0  0  0  0  0  0  0  0  0  0  0  0
 14 16  1  0  0  0  0
 15 16  1  0  0  0  0
 11 14  1  0  0  0  0
 12 14  1  0  0  0  0
 13 14  1  0  0  0  0
  7 15  1  0  0  0  0
  8 15  1  0  0  0  0
  5  7  2  0  0  0  0
  7  9  1  0  0  0  0
  6  8  2  0  0  0  0
  8 10  1  0  0  0  0
  9 10  2  0  0  0  0
  1  9  1  0  0  0  0
  2 10  1  0  0  0  0
  1  3  2  0  0  0  0
  2  4  2  0  0  0  0
  3  4  1  0  0  0  0
  1 17  1  0  0  0  0
  2 18  1  0  0  0  0
  3 19  1  0  0  0  0
  4 20  1  0  0  0  0
M  END
$$$$
