C11H15N3O2
APtclcactv12211717343D 0   0.00000     0.00000
 
 31 31  0  0  0  0  0  0  0  0999 V2000
   -0.2664    0.0375   -0.3335 C   0  0  0  0  0  0  0  0  0  0  0  0
   -1.2039    2.2235    0.0004 C   0  0  0  0  0  0  0  0  0  0  0  0
    0.0096    2.6782    0.4818 C   0  0  0  0  0  0  0  0  0  0  0  0
    1.0901    1.8230    0.5594 C   0  0  0  0  0  0  0  0  0  0  0  0
   -5.0971   -1.9095    0.2824 C   0  0  0  0  0  0  0  0  0  0  0  0
    4.0974   -2.1676    0.4364 C   0  0  0  0  0  0  0  0  0  0  0  0
    5.5923   -0.3780   -0.5642 C   0  0  0  0  0  0  0  0  0  0  0  0
   -4.6774   -0.7588   -1.4520 H   0  0  0  0  0  0  0  0  0  0  0  0
   -1.3439    0.9036   -0.4073 C   0  0  0  0  0  0  0  0  0  0  0  0
    0.9587    0.4950    0.1516 C   0  0  0  0  0  0  0  0  0  0  0  0
   -2.8178   -0.6668    1.0117 O   0  0  0  0  0  0  0  0  0  0  0  0
   -3.2224   -0.4014   -0.1030 C   0  0  0  0  0  0  0  0  0  0  0  0
   -2.5396    0.4616   -0.8794 O   0  0  0  0  0  0  0  0  0  0  0  0
    3.2038    0.0328   -0.1807 C   0  0  0  0  0  0  0  0  0  0  0  0
   -4.3544   -0.9707   -0.5622 N   0  0  0  0  0  0  0  0  0  0  0  0
    2.0306   -0.3578    0.2278 N   0  0  0  0  0  0  0  0  0  0  0  0
    4.2725   -0.8174   -0.1046 N   0  0  0  0  0  0  0  0  0  0  0  0
   -0.3752   -0.9904   -0.6464 H   0  0  0  0  0  0  0  0  0  0  0  0
   -2.0460    2.8971   -0.0585 H   0  0  0  0  0  0  0  0  0  0  0  0
   -4.4587   -2.7569    0.5320 H   0  0  0  0  0  0  0  0  0  0  0  0
   -5.4080   -1.4066    1.1981 H   0  0  0  0  0  0  0  0  0  0  0  0
   -5.9772   -2.2633   -0.2546 H   0  0  0  0  0  0  0  0  0  0  0  0
    0.1126    3.7059    0.7974 H   0  0  0  0  0  0  0  0  0  0  0  0
    2.0370    2.1816    0.9353 H   0  0  0  0  0  0  0  0  0  0  0  0
    3.3329    1.0282   -0.5795 H   0  0  0  0  0  0  0  0  0  0  0  0
    3.8423   -2.8527   -0.3721 H   0  0  0  0  0  0  0  0  0  0  0  0
    5.0241   -2.4925    0.9093 H   0  0  0  0  0  0  0  0  0  0  0  0
    3.2954   -2.1620    1.1745 H   0  0  0  0  0  0  0  0  0  0  0  0
    5.9066    0.4922    0.0122 H   0  0  0  0  0  0  0  0  0  0  0  0
    6.3123   -1.1846   -0.4260 H   0  0  0  0  0  0  0  0  0  0  0  0
    5.5401   -0.1146   -1.6206 H   0  0  0  0  0  0  0  0  0  0  0  0
 12 13  1  0  0  0  0
 12 15  1  0  0  0  0
 11 12  2  0  0  0  0
  9 13  1  0  0  0  0
  1  9  2  0  0  0  0
  2  9  1  0  0  0  0
  5 15  1  0  0  0  0
  1 10  1  0  0  0  0
  2  3  2  0  0  0  0
 10 16  1  0  0  0  0
  4 10  2  0  0  0  0
  3  4  1  0  0  0  0
 14 16  2  0  0  0  0
 14 17  1  0  0  0  0
  6 17  1  0  0  0  0
  7 17  1  0  0  0  0
  8 15  1  0  0  0  0
  1 18  1  0  0  0  0
  2 19  1  0  0  0  0
  5 20  1  0  0  0  0
  5 21  1  0  0  0  0
  5 22  1  0  0  0  0
  3 23  1  0  0  0  0
  4 24  1  0  0  0  0
 14 25  1  0  0  0  0
  6 26  1  0  0  0  0
  6 27  1  0  0  0  0
  6 28  1  0  0  0  0
  7 29  1  0  0  0  0
  7 30  1  0  0  0  0
  7 31  1  0  0  0  0
M  END
$$$$
