C9H20NO3PS2
APtclcactv12151716533D 0   0.00000     0.00000
 
 36 35  0  0  0  0  0  0  0  0999 V2000
    0.6302   -1.4069    1.1579 C   0  0  0  0  0  0  0  0  0  0  0  0
   -0.3470    2.5951   -0.4359 C   0  0  0  0  0  0  0  0  0  0  0  0
   -2.6658   -2.1420   -0.4559 C   0  0  0  0  0  0  0  0  0  0  0  0
    0.6627    3.2177   -1.4023 C   0  0  0  0  0  0  0  0  0  0  0  0
   -2.7651   -3.1932   -1.5631 C   0  0  0  0  0  0  0  0  0  0  0  0
    4.8697    0.0937    0.7146 C   0  0  0  0  0  0  0  0  0  0  0  0
    4.6519   -0.9269   -1.5555 C   0  0  0  0  0  0  0  0  0  0  0  0
    2.8817   -2.0328   -0.0438 H   0  0  0  0  0  0  0  0  0  0  0  0
    1.6660    0.6803    0.7832 O   0  0  0  0  0  0  0  0  0  0  0  0
    1.7420   -0.5232    0.6539 C   0  0  0  0  0  0  0  0  0  0  0  0
   -0.6236    1.2515   -0.8362 O   0  0  0  0  0  0  0  0  0  0  0  0
   -2.0155   -0.9753   -0.9636 O   0  0  0  0  0  0  0  0  0  0  0  0
    3.9017   -0.2112   -0.4304 C   0  0  0  0  0  0  0  0  0  0  0  0
    2.8209   -1.0703    0.0595 N   0  0  0  0  0  0  0  0  0  0  0  0
   -1.6460    0.2932   -0.0436 P   0  0  0  0  0  0  0  0  0  0  0  0
   -0.7392   -0.3763    1.7520 S   0  0  0  0  0  0  0  0  0  0  0  0
   -3.1989    1.2408    0.3606 S   0  0  0  0  0  0  0  0  0  0  0  0
    0.2790   -2.0464    0.3480 H   0  0  0  0  0  0  0  0  0  0  0  0
    1.0003   -2.0259    1.9752 H   0  0  0  0  0  0  0  0  0  0  0  0
    0.0670    2.5959    0.5724 H   0  0  0  0  0  0  0  0  0  0  0  0
   -1.2694    3.1757   -0.4504 H   0  0  0  0  0  0  0  0  0  0  0  0
   -3.6667   -1.8798   -0.1130 H   0  0  0  0  0  0  0  0  0  0  0  0
   -2.0903   -2.5452    0.3774 H   0  0  0  0  0  0  0  0  0  0  0  0
    1.5851    2.6371   -1.3878 H   0  0  0  0  0  0  0  0  0  0  0  0
    0.2487    3.2169   -2.4106 H   0  0  0  0  0  0  0  0  0  0  0  0
    0.8737    4.2425   -1.0969 H   0  0  0  0  0  0  0  0  0  0  0  0
   -3.2611   -4.0832   -1.1758 H   0  0  0  0  0  0  0  0  0  0  0  0
   -3.3406   -2.7900   -2.3964 H   0  0  0  0  0  0  0  0  0  0  0  0
   -1.7642   -3.4554   -1.9060 H   0  0  0  0  0  0  0  0  0  0  0  0
    3.4818    0.7207   -0.8091 H   0  0  0  0  0  0  0  0  0  0  0  0
    5.6738    0.7329    0.3501 H   0  0  0  0  0  0  0  0  0  0  0  0
    4.3352    0.6036    1.5162 H   0  0  0  0  0  0  0  0  0  0  0  0
    5.2895   -0.8381    1.0933 H   0  0  0  0  0  0  0  0  0  0  0  0
    3.9623   -1.1441   -2.3712 H   0  0  0  0  0  0  0  0  0  0  0  0
    5.4561   -0.2877   -1.9200 H   0  0  0  0  0  0  0  0  0  0  0  0
    5.0718   -1.8587   -1.1768 H   0  0  0  0  0  0  0  0  0  0  0  0
 15 16  1  0  0  0  0
 11 15  1  0  0  0  0
 12 15  1  0  0  0  0
 15 17  2  0  0  0  0
  1 16  1  0  0  0  0
  2 11  1  0  0  0  0
  3 12  1  0  0  0  0
  1 10  1  0  0  0  0
  2  4  1  0  0  0  0
  3  5  1  0  0  0  0
 10 14  1  0  0  0  0
  9 10  2  0  0  0  0
 13 14  1  0  0  0  0
  6 13  1  0  0  0  0
  7 13  1  0  0  0  0
  1 18  1  0  0  0  0
  1 19  1  0  0  0  0
  2 20  1  0  0  0  0
  2 21  1  0  0  0  0
  3 22  1  0  0  0  0
  3 23  1  0  0  0  0
  4 24  1  0  0  0  0
  4 25  1  0  0  0  0
  4 26  1  0  0  0  0
  5 27  1  0  0  0  0
  5 28  1  0  0  0  0
  5 29  1  0  0  0  0
  8 14  1  0  0  0  0
 13 30  1  0  0  0  0
  6 31  1  0  0  0  0
  6 32  1  0  0  0  0
  6 33  1  0  0  0  0
  7 34  1  0  0  0  0
  7 35  1  0  0  0  0
  7 36  1  0  0  0  0
M  END
$$$$
