C6H12O6
APtclcactv12211716583D 0   0.00000     0.00000
 
 24 23  0  0  1  0  0  0  0  0999 V2000
    3.9391    1.1211   -0.0740 O   0  0  0  0  0  0  0  0  0  0  0  0
    2.6317    0.9958   -0.6371 C   0  0  0  0  0  0  0  0  0  0  0  0
    1.9660   -0.2411   -0.0913 C   0  0  0  0  0  0  0  0  0  0  0  0
    2.5509   -0.9430    0.6985 O   0  0  0  0  0  0  0  0  0  0  0  0
    0.5706   -0.6022   -0.5309 C   0  0  1  0  0  0  0  0  0  0  0  0
    0.4900   -0.4907   -1.6122 H   0  0  0  0  0  0  0  0  0  0  0  0
    0.2929   -1.9567   -0.1698 O   0  0  0  0  0  0  0  0  0  0  0  0
   -0.4358    0.3247    0.1538 C   0  0  2  0  0  0  0  0  0  0  0  0
   -0.2805    1.3472   -0.1904 H   0  0  0  0  0  0  0  0  0  0  0  0
   -0.2512    0.2655    1.5696 O   0  0  0  0  0  0  0  0  0  0  0  0
   -1.8577   -0.1202   -0.1942 C   0  0  2  0  0  0  0  0  0  0  0  0
   -2.0130   -1.1427    0.1500 H   0  0  0  0  0  0  0  0  0  0  0  0
   -2.0423   -0.0609   -1.6100 O   0  0  0  0  0  0  0  0  0  0  0  0
   -2.8641    0.8068    0.4905 C   0  0  0  0  0  0  0  0  0  0  0  0
   -4.1892    0.3235    0.2614 O   0  0  0  0  0  0  0  0  0  0  0  0
    4.4270    1.8973   -0.3815 H   0  0  0  0  0  0  0  0  0  0  0  0
    2.0385    1.8725   -0.3770 H   0  0  0  0  0  0  0  0  0  0  0  0
    2.7091    0.9182   -1.7216 H   0  0  0  0  0  0  0  0  0  0  0  0
    0.3464   -2.1293    0.7801 H   0  0  0  0  0  0  0  0  0  0  0  0
   -0.3742   -0.6168    1.9457 H   0  0  0  0  0  0  0  0  0  0  0  0
   -1.9193    0.8214   -1.9861 H   0  0  0  0  0  0  0  0  0  0  0  0
   -2.6660    0.8300    1.5621 H   0  0  0  0  0  0  0  0  0  0  0  0
   -2.7684    1.8126    0.0814 H   0  0  0  0  0  0  0  0  0  0  0  0
   -4.8807    0.8638    0.6678 H   0  0  0  0  0  0  0  0  0  0  0  0
  1  2  1  0  0  0  0
  2  3  1  0  0  0  0
  3  4  2  0  0  0  0
  3  5  1  0  0  0  0
  5  6  1  0  0  0  0
  5  7  1  0  0  0  0
  5  8  1  0  0  0  0
  8  9  1  0  0  0  0
  8 10  1  0  0  0  0
  8 11  1  0  0  0  0
 11 12  1  0  0  0  0
 11 13  1  0  0  0  0
 11 14  1  0  0  0  0
 14 15  1  0  0  0  0
  1 16  1  0  0  0  0
  2 17  1  0  0  0  0
  2 18  1  0  0  0  0
  7 19  1  0  0  0  0
 10 20  1  0  0  0  0
 13 21  1  0  0  0  0
 14 22  1  0  0  0  0
 14 23  1  0  0  0  0
 15 24  1  0  0  0  0
M  END
$$$$
