C8H9FN2O3
APtclcactv12151716303D 0   0.00000     0.00000
 
 23 24  0  0  0  0  0  0  0  0999 V2000
    2.3300   -2.1656    0.1959 H   0  0  0  0  0  0  0  0  0  0  0  0
   -0.0428   -2.5503   -0.2081 O   0  0  0  0  0  0  0  0  0  0  0  0
    3.5927   -0.0673    0.3634 O   0  0  0  0  0  0  0  0  0  0  0  0
   -2.4433   -0.8235    0.7516 C   0  0  0  0  0  0  0  0  0  0  0  0
   -3.3889    0.3807    0.9806 C   0  0  0  0  0  0  0  0  0  0  0  0
   -2.7252    1.4835    0.1170 C   0  0  0  0  0  0  0  0  0  0  0  0
   -1.7120   -0.4850   -0.5619 C   0  0  0  0  0  0  0  0  0  0  0  0
    0.4792   -1.4536   -0.1497 C   0  0  0  0  0  0  0  0  0  0  0  0
    1.6147    1.0187   -0.0141 C   0  0  0  0  0  0  0  0  0  0  0  0
    2.3958   -0.1520    0.1547 C   0  0  0  0  0  0  0  0  0  0  0  0
   -2.2436    0.7628   -1.0377 O   0  0  0  0  0  0  0  0  0  0  0  0
    0.2896    0.8963   -0.2449 C   0  0  0  0  0  0  0  0  0  0  0  0
    2.1880    2.2401    0.0544 F   0  0  0  0  0  0  0  0  0  0  0  0
   -0.2748   -0.3511   -0.3116 N   0  0  0  0  0  0  0  0  0  0  0  0
    1.8018   -1.3601    0.0813 N   0  0  0  0  0  0  0  0  0  0  0  0
   -1.8884   -1.2701   -1.2972 H   0  0  0  0  0  0  0  0  0  0  0  0
   -0.3221    1.7766   -0.3766 H   0  0  0  0  0  0  0  0  0  0  0  0
   -1.7318   -0.9114    1.5727 H   0  0  0  0  0  0  0  0  0  0  0  0
   -3.0171   -1.7438    0.6426 H   0  0  0  0  0  0  0  0  0  0  0  0
   -4.3944    0.1592    0.6230 H   0  0  0  0  0  0  0  0  0  0  0  0
   -3.4058    0.6676    2.0320 H   0  0  0  0  0  0  0  0  0  0  0  0
   -3.4588    2.2340   -0.1774 H   0  0  0  0  0  0  0  0  0  0  0  0
   -1.8968    1.9452    0.6543 H   0  0  0  0  0  0  0  0  0  0  0  0
  7 14  1  0  0  0  0
  8 14  1  0  0  0  0
 12 14  1  0  0  0  0
  4  7  1  0  0  0  0
  7 11  1  0  0  0  0
  8 15  1  0  0  0  0
  2  8  2  0  0  0  0
  9 12  2  0  0  0  0
  4  5  1  0  0  0  0
  6 11  1  0  0  0  0
 10 15  1  0  0  0  0
  9 13  1  0  0  0  0
  3 10  2  0  0  0  0
  9 10  1  0  0  0  0
  5  6  1  0  0  0  0
  7 16  1  0  0  0  0
 12 17  1  0  0  0  0
  4 18  1  0  0  0  0
  4 19  1  0  0  0  0
  1 15  1  0  0  0  0
  5 20  1  0  0  0  0
  5 21  1  0  0  0  0
  6 22  1  0  0  0  0
  6 23  1  0  0  0  0
M  END
$$$$
