C5H4O2
APtclcactv12211716423D 0   0.00000     0.00000
 
 11 11  0  0  0  0  0  0  0  0999 V2000
    1.6335   -0.5354    0.0001 C   0  0  0  0  0  0  0  0  0  0  0  0
    0.2496   -0.2495   -0.0008 C   0  0  0  0  0  0  0  0  0  0  0  0
   -0.7730   -1.1772    0.0003 C   0  0  0  0  0  0  0  0  0  0  0  0
   -1.9707   -0.4499   -0.0004 C   0  0  0  0  0  0  0  0  0  0  0  0
   -1.6425    0.8625   -0.0019 C   0  0  0  0  0  0  0  0  0  0  0  0
   -0.3093    0.9796    0.0029 O   0  0  0  0  0  0  0  0  0  0  0  0
    2.4409    0.3718   -0.0012 O   0  0  0  0  0  0  0  0  0  0  0  0
    1.9732   -1.5605    0.0063 H   0  0  0  0  0  0  0  0  0  0  0  0
   -0.6700   -2.2523    0.0012 H   0  0  0  0  0  0  0  0  0  0  0  0
   -2.9696   -0.8605    0.0002 H   0  0  0  0  0  0  0  0  0  0  0  0
   -2.3437    1.6839   -0.0031 H   0  0  0  0  0  0  0  0  0  0  0  0
  1  2  1  0  0  0  0
  2  3  2  0  0  0  0
  3  4  1  0  0  0  0
  4  5  2  0  0  0  0
  5  6  1  0  0  0  0
  2  6  1  0  0  0  0
  1  7  2  0  0  0  0
  1  8  1  0  0  0  0
  3  9  1  0  0  0  0
  4 10  1  0  0  0  0
  5 11  1  0  0  0  0
M  END
$$$$
