C6H14O6
APtclcactv12211717013D 0   0.00000     0.00000
 
 26 25  0  0  0  0  0  0  0  0999 V2000
    3.0763   -0.6134   -0.3178 C   0  0  0  0  0  0  0  0  0  0  0  0
    1.8917    0.3353   -0.1238 C   0  0  2  0  0  0  0  0  0  0  0  0
    1.8853    1.0766   -0.9230 H   0  0  0  0  0  0  0  0  0  0  0  0
    2.0121    0.9959    1.1376 O   0  0  0  0  0  0  0  0  0  0  0  0
    0.5874   -0.4637   -0.1588 C   0  0  1  0  0  0  0  0  0  0  0  0
    0.4520   -0.8950   -1.1506 H   0  0  0  0  0  0  0  0  0  0  0  0
    0.6439   -1.5105    0.8122 O   0  0  0  0  0  0  0  0  0  0  0  0
   -0.5874    0.4637    0.1588 C   0  0  1  0  0  0  0  0  0  0  0  0
   -0.4520    0.8950    1.1506 H   0  0  0  0  0  0  0  0  0  0  0  0
   -0.6439    1.5105   -0.8122 O   0  0  0  0  0  0  0  0  0  0  0  0
   -1.8917   -0.3353    0.1238 C   0  0  2  0  0  0  0  0  0  0  0  0
   -1.8853   -1.0766    0.9230 H   0  0  0  0  0  0  0  0  0  0  0  0
   -2.0121   -0.9959   -1.1376 O   0  0  0  0  0  0  0  0  0  0  0  0
   -3.0763    0.6134    0.3178 C   0  0  0  0  0  0  0  0  0  0  0  0
   -4.2848   -0.1446    0.4017 O   0  0  0  0  0  0  0  0  0  0  0  0
    4.2848    0.1446   -0.4017 O   0  0  0  0  0  0  0  0  0  0  0  0
    3.1352   -1.2987    0.5278 H   0  0  0  0  0  0  0  0  0  0  0  0
    2.9395   -1.1821   -1.2376 H   0  0  0  0  0  0  0  0  0  0  0  0
    2.0244    0.3961    1.8960 H   0  0  0  0  0  0  0  0  0  0  0  0
    0.7635   -1.1991    1.7199 H   0  0  0  0  0  0  0  0  0  0  0  0
   -0.7635    1.1991   -1.7199 H   0  0  0  0  0  0  0  0  0  0  0  0
   -2.0244   -0.3961   -1.8960 H   0  0  0  0  0  0  0  0  0  0  0  0
   -2.9395    1.1821    1.2376 H   0  0  0  0  0  0  0  0  0  0  0  0
   -3.1352    1.2987   -0.5278 H   0  0  0  0  0  0  0  0  0  0  0  0
   -5.0788    0.3934    0.5253 H   0  0  0  0  0  0  0  0  0  0  0  0
    5.0788   -0.3934   -0.5253 H   0  0  0  0  0  0  0  0  0  0  0  0
  1  2  1  0  0  0  0
  2  3  1  0  0  0  0
  2  4  1  0  0  0  0
  2  5  1  0  0  0  0
  5  6  1  0  0  0  0
  5  7  1  0  0  0  0
  5  8  1  0  0  0  0
  8  9  1  0  0  0  0
  8 10  1  0  0  0  0
  8 11  1  0  0  0  0
 11 12  1  0  0  0  0
 11 13  1  0  0  0  0
 11 14  1  0  0  0  0
 14 15  1  0  0  0  0
  1 16  1  0  0  0  0
  1 17  1  0  0  0  0
  1 18  1  0  0  0  0
  4 19  1  0  0  0  0
  7 20  1  0  0  0  0
 10 21  1  0  0  0  0
 13 22  1  0  0  0  0
 14 23  1  0  0  0  0
 14 24  1  0  0  0  0
 15 25  1  0  0  0  0
 16 26  1  0  0  0  0
M  END
$$$$
