C9H13N5O4
APtclcactv12151716493D 0   0.00000     0.00000
 
 31 32  0  0  0  0  0  0  0  0999 V2000
    0.0210    1.5436    0.0638 C   0  0  0  0  0  0  0  0  0  0  0  0
   -1.0104   -0.7474    0.3016 C   0  0  0  0  0  0  0  0  0  0  0  0
   -4.4883   -0.0596    1.2124 C   0  0  0  0  0  0  0  0  0  0  0  0
   -3.9117   -1.2354   -0.9154 C   0  0  0  0  0  0  0  0  0  0  0  0
   -5.5945    1.5924    0.8271 H   0  0  0  0  0  0  0  0  0  0  0  0
   -4.6927   -0.2465   -2.5008 H   0  0  0  0  0  0  0  0  0  0  0  0
    1.6578   -2.1618    0.2236 H   0  0  0  0  0  0  0  0  0  0  0  0
    3.6562   -3.3419    0.1746 H   0  0  0  0  0  0  0  0  0  0  0  0
    5.1202   -2.5332    0.0151 H   0  0  0  0  0  0  0  0  0  0  0  0
    4.2466    2.0114   -0.2579 O   0  0  0  0  0  0  0  0  0  0  0  0
   -4.9043    1.0528    0.4178 O   0  0  0  0  0  0  0  0  0  0  0  0
   -4.3541   -0.0691   -1.6125 O   0  0  0  0  0  0  0  0  0  0  0  0
   -2.2382   -0.0169    0.3316 O   0  0  0  0  0  0  0  0  0  0  0  0
    3.5873    0.9906   -0.1378 C   0  0  0  0  0  0  0  0  0  0  0  0
    3.4873   -1.3179    0.0372 C   0  0  0  0  0  0  0  0  0  0  0  0
    1.4284   -0.1443    0.0919 C   0  0  0  0  0  0  0  0  0  0  0  0
    2.1254    1.0503   -0.0432 C   0  0  0  0  0  0  0  0  0  0  0  0
   -3.3997   -0.8377    0.4704 C   0  0  0  0  0  0  0  0  0  0  0  0
    4.1526   -2.5139    0.0797 N   0  0  0  0  0  0  0  0  0  0  0  0
    1.2144    2.0510   -0.0546 N   0  0  0  0  0  0  0  0  0  0  0  0
    2.1318   -1.3207    0.1299 N   0  0  0  0  0  0  0  0  0  0  0  0
    4.1854   -0.2099   -0.0900 N   0  0  0  0  0  0  0  0  0  0  0  0
    0.1097    0.1857    0.1574 N   0  0  0  0  0  0  0  0  0  0  0  0
   -0.8976    2.1111    0.0887 H   0  0  0  0  0  0  0  0  0  0  0  0
   -0.8987   -1.3086    1.2293 H   0  0  0  0  0  0  0  0  0  0  0  0
   -1.0190   -1.4379   -0.5418 H   0  0  0  0  0  0  0  0  0  0  0  0
   -3.1453   -1.7347    1.0350 H   0  0  0  0  0  0  0  0  0  0  0  0
   -4.0941    0.3000    2.1629 H   0  0  0  0  0  0  0  0  0  0  0  0
   -5.3407   -0.7135    1.3967 H   0  0  0  0  0  0  0  0  0  0  0  0
   -4.7429   -1.9325   -0.8094 H   0  0  0  0  0  0  0  0  0  0  0  0
   -3.1078   -1.7113   -1.4770 H   0  0  0  0  0  0  0  0  0  0  0  0
  2 13  1  0  0  0  0
 13 18  1  0  0  0  0
 10 14  2  0  0  0  0
  3 11  1  0  0  0  0
  4 12  1  0  0  0  0
 16 23  1  0  0  0  0
  1 23  1  0  0  0  0
  2 23  1  0  0  0  0
 16 21  1  0  0  0  0
 15 21  1  0  0  0  0
 17 20  1  0  0  0  0
  1 20  2  0  0  0  0
 14 22  1  0  0  0  0
 15 22  2  0  0  0  0
 15 19  1  0  0  0  0
 16 17  2  0  0  0  0
 14 17  1  0  0  0  0
  3 18  1  0  0  0  0
  4 18  1  0  0  0  0
  5 11  1  0  0  0  0
  6 12  1  0  0  0  0
  7 21  1  0  0  0  0
  8 19  1  0  0  0  0
  9 19  1  0  0  0  0
  1 24  1  0  0  0  0
  2 25  1  0  0  0  0
  2 26  1  0  0  0  0
 18 27  1  0  0  0  0
  3 28  1  0  0  0  0
  3 29  1  0  0  0  0
  4 30  1  0  0  0  0
  4 31  1  0  0  0  0
M  END
$$$$
