C7H12ClN5
APtclcactv12111704493D 0   0.00000     0.00000
 
 25 25  0  0  0  0  0  0  0  0999 V2000
    3.6136    0.6242    0.0007 C   0  0  0  0  0  0  0  0  0  0  0  0
   -3.6136    0.6242   -0.0017 C   0  0  0  0  0  0  0  0  0  0  0  0
    4.7784    1.6163   -0.0041 C   0  0  0  0  0  0  0  0  0  0  0  0
   -4.7784    1.6163   -0.0017 C   0  0  0  0  0  0  0  0  0  0  0  0
    2.3480    2.3291   -0.0035 H   0  0  0  0  0  0  0  0  0  0  0  0
   -2.3480    2.3291    0.0016 H   0  0  0  0  0  0  0  0  0  0  0  0
    1.1499    0.6713    0.0036 C   0  0  0  0  0  0  0  0  0  0  0  0
   -1.1499    0.6713    0.0008 C   0  0  0  0  0  0  0  0  0  0  0  0
    0.0000   -1.3195    0.0006 C   0  0  0  0  0  0  0  0  0  0  0  0
    0.0000   -3.0555   -0.0009 Cl  0  0  0  0  0  0  0  0  0  0  0  0
   -0.0000    1.3371    0.0028 N   0  0  0  0  0  0  0  0  0  0  0  0
   -1.1466   -0.6594   -0.0002 N   0  0  0  0  0  0  0  0  0  0  0  0
    1.1466   -0.6594    0.0025 N   0  0  0  0  0  0  0  0  0  0  0  0
    2.3462    1.3591   -0.0002 N   0  0  0  0  0  0  0  0  0  0  0  0
   -2.3462    1.3591    0.0004 N   0  0  0  0  0  0  0  0  0  0  0  0
    3.6691   -0.0055   -0.8873 H   0  0  0  0  0  0  0  0  0  0  0  0
    3.6713    0.0005    0.8927 H   0  0  0  0  0  0  0  0  0  0  0  0
   -3.6711   -0.0036    0.8875 H   0  0  0  0  0  0  0  0  0  0  0  0
   -3.6693   -0.0015   -0.8924 H   0  0  0  0  0  0  0  0  0  0  0  0
    4.7229    2.2461    0.8839 H   0  0  0  0  0  0  0  0  0  0  0  0
    5.7213    1.0696   -0.0034 H   0  0  0  0  0  0  0  0  0  0  0  0
    4.7207    2.2401   -0.8961 H   0  0  0  0  0  0  0  0  0  0  0  0
   -4.7209    2.2441   -0.8909 H   0  0  0  0  0  0  0  0  0  0  0  0
   -5.7213    1.0695   -0.0032 H   0  0  0  0  0  0  0  0  0  0  0  0
   -4.7227    2.2420    0.8891 H   0  0  0  0  0  0  0  0  0  0  0  0
  9 10  1  0  0  0  0
  7 11  2  0  0  0  0
  8 11  1  0  0  0  0
  8 12  2  0  0  0  0
  9 12  1  0  0  0  0
  7 13  1  0  0  0  0
  9 13  2  0  0  0  0
  7 14  1  0  0  0  0
  1 14  1  0  0  0  0
  8 15  1  0  0  0  0
  2 15  1  0  0  0  0
  1  3  1  0  0  0  0
  2  4  1  0  0  0  0
  5 14  1  0  0  0  0
  6 15  1  0  0  0  0
  1 16  1  0  0  0  0
  1 17  1  0  0  0  0
  2 18  1  0  0  0  0
  2 19  1  0  0  0  0
  3 20  1  0  0  0  0
  3 21  1  0  0  0  0
  3 22  1  0  0  0  0
  4 23  1  0  0  0  0
  4 24  1  0  0  0  0
  4 25  1  0  0  0  0
M  END
$$$$
