C5H8O4
APtclcactv12211716433D 0   0.00000     0.00000
 
 17 16  0  0  0  0  0  0  0  0999 V2000
    2.4797    0.0370   -0.0017 C   0  0  0  0  0  0  0  0  0  0  0  0
    1.2492   -0.8331   -0.0017 C   0  0  0  0  0  0  0  0  0  0  0  0
    0.0000    0.0503   -0.0007 C   0  0  0  0  0  0  0  0  0  0  0  0
   -1.2492   -0.8331   -0.0007 C   0  0  0  0  0  0  0  0  0  0  0  0
   -2.4797    0.0370    0.0003 C   0  0  0  0  0  0  0  0  0  0  0  0
   -2.3688    1.2401    0.0010 O   0  0  0  0  0  0  0  0  0  0  0  0
   -3.6988   -0.5247    0.0005 O   0  0  0  0  0  0  0  0  0  0  0  0
    2.3688    1.2401   -0.0010 O   0  0  0  0  0  0  0  0  0  0  0  0
    3.6988   -0.5247    0.0030 O   0  0  0  0  0  0  0  0  0  0  0  0
    1.2489   -1.4619   -0.8921 H   0  0  0  0  0  0  0  0  0  0  0  0
    1.2496   -1.4629    0.8879 H   0  0  0  0  0  0  0  0  0  0  0  0
    0.0004    0.6791    0.8897 H   0  0  0  0  0  0  0  0  0  0  0  0
   -0.0004    0.6801   -0.8903 H   0  0  0  0  0  0  0  0  0  0  0  0
   -1.2496   -1.4619   -0.8910 H   0  0  0  0  0  0  0  0  0  0  0  0
   -1.2489   -1.4629    0.8889 H   0  0  0  0  0  0  0  0  0  0  0  0
   -4.4581    0.0742    0.0012 H   0  0  0  0  0  0  0  0  0  0  0  0
    4.4581    0.0742    0.0028 H   0  0  0  0  0  0  0  0  0  0  0  0
  1  2  1  0  0  0  0
  2  3  1  0  0  0  0
  3  4  1  0  0  0  0
  4  5  1  0  0  0  0
  5  6  2  0  0  0  0
  5  7  1  0  0  0  0
  1  8  2  0  0  0  0
  1  9  1  0  0  0  0
  2 10  1  0  0  0  0
  2 11  1  0  0  0  0
  3 12  1  0  0  0  0
  3 13  1  0  0  0  0
  4 14  1  0  0  0  0
  4 15  1  0  0  0  0
  7 16  1  0  0  0  0
  9 17  1  0  0  0  0
M  END
$$$$
