C13H15NO2
APtclcactv12071713263D 0   0.00000     0.00000
 
 31 32  0  0  0  0  0  0  0  0999 V2000
    2.0526   -0.5770   -0.8564 C   0  0  0  0  0  0  0  0  0  0  0  0
    1.7354    0.4498    1.2832 C   0  0  0  0  0  0  0  0  0  0  0  0
    3.3883   -0.7775   -0.5621 C   0  0  0  0  0  0  0  0  0  0  0  0
    3.0711    0.2493    1.5774 C   0  0  0  0  0  0  0  0  0  0  0  0
    3.8975   -0.3646    0.6549 C   0  0  0  0  0  0  0  0  0  0  0  0
   -0.3537    1.0206   -1.5733 C   0  0  0  0  0  0  0  0  0  0  0  0
    0.3359    2.3799   -1.4407 C   0  0  0  0  0  0  0  0  0  0  0  0
   -2.6279   -2.0931   -0.1539 H   0  0  0  0  0  0  0  0  0  0  0  0
    1.2261    0.0365    0.0664 C   0  0  0  0  0  0  0  0  0  0  0  0
   -0.3011   -2.0351   -0.7809 O   0  0  0  0  0  0  0  0  0  0  0  0
   -4.1239   -0.4053    0.6968 O   0  0  0  0  0  0  0  0  0  0  0  0
   -0.8869    1.0617    0.8709 C   0  0  0  0  0  0  0  0  0  0  0  0
   -2.3869    1.1747    0.5788 C   0  0  0  0  0  0  0  0  0  0  0  0
   -0.9234   -1.0759   -0.3782 C   0  0  0  0  0  0  0  0  0  0  0  0
   -2.9630   -0.2063    0.4098 C   0  0  0  0  0  0  0  0  0  0  0  0
   -0.2301    0.2551   -0.2544 C   0  0  0  0  0  0  0  0  0  0  0  0
   -2.2165   -1.2207   -0.0518 N   0  0  0  0  0  0  0  0  0  0  0  0
   -0.4460    2.0577    0.9127 H   0  0  0  0  0  0  0  0  0  0  0  0
   -0.7367    0.5518    1.8225 H   0  0  0  0  0  0  0  0  0  0  0  0
   -1.4073    1.1693   -1.8097 H   0  0  0  0  0  0  0  0  0  0  0  0
    0.1205    0.4489   -2.3711 H   0  0  0  0  0  0  0  0  0  0  0  0
    1.6557   -0.8956   -1.8090 H   0  0  0  0  0  0  0  0  0  0  0  0
    1.0897    0.9291    2.0041 H   0  0  0  0  0  0  0  0  0  0  0  0
   -2.8829    1.6772    1.4093 H   0  0  0  0  0  0  0  0  0  0  0  0
   -2.5377    1.7469   -0.3366 H   0  0  0  0  0  0  0  0  0  0  0  0
   -0.2021    2.9911   -0.7160 H   0  0  0  0  0  0  0  0  0  0  0  0
    1.3622    2.2353   -1.1032 H   0  0  0  0  0  0  0  0  0  0  0  0
    0.3389    2.8818   -2.4083 H   0  0  0  0  0  0  0  0  0  0  0  0
    4.0339   -1.2572   -1.2829 H   0  0  0  0  0  0  0  0  0  0  0  0
    3.4691    0.5726    2.5280 H   0  0  0  0  0  0  0  0  0  0  0  0
    4.9409   -0.5219    0.8851 H   0  0  0  0  0  0  0  0  0  0  0  0
  9 16  1  0  0  0  0
 14 16  1  0  0  0  0
 12 16  1  0  0  0  0
  6 16  1  0  0  0  0
  1  9  2  0  0  0  0
  2  9  1  0  0  0  0
 14 17  1  0  0  0  0
 10 14  2  0  0  0  0
 12 13  1  0  0  0  0
  6  7  1  0  0  0  0
  1  3  1  0  0  0  0
  2  4  2  0  0  0  0
 15 17  1  0  0  0  0
  3  5  2  0  0  0  0
 11 15  2  0  0  0  0
 13 15  1  0  0  0  0
  4  5  1  0  0  0  0
 12 18  1  0  0  0  0
 12 19  1  0  0  0  0
  6 20  1  0  0  0  0
  6 21  1  0  0  0  0
  1 22  1  0  0  0  0
  2 23  1  0  0  0  0
  8 17  1  0  0  0  0
 13 24  1  0  0  0  0
 13 25  1  0  0  0  0
  7 26  1  0  0  0  0
  7 27  1  0  0  0  0
  7 28  1  0  0  0  0
  3 29  1  0  0  0  0
  4 30  1  0  0  0  0
  5 31  1  0  0  0  0
M  END
$$$$
