C12H16N4O2S2
APtclcactv12111705013D 0   0.00000     0.00000
 
 36 37  0  0  0  0  0  0  0  0999 V2000
    3.3103   -0.0014    0.9104 C   0  0  0  0  0  0  0  0  0  0  0  0
    2.0563    0.7785   -0.9777 C   0  0  0  0  0  0  0  0  0  0  0  0
    3.8652    1.2538    1.0649 C   0  0  0  0  0  0  0  0  0  0  0  0
    2.6074    2.0360   -0.8289 C   0  0  0  0  0  0  0  0  0  0  0  0
   -4.8668    0.6695   -1.3811 C   0  0  0  0  0  0  0  0  0  0  0  0
   -3.9494    2.4584    0.1023 C   0  0  0  0  0  0  0  0  0  0  0  0
   -5.0144    0.4313    1.1016 C   0  0  0  0  0  0  0  0  0  0  0  0
    0.2515   -2.4752    1.3655 H   0  0  0  0  0  0  0  0  0  0  0  0
    4.7075    3.7170    1.0633 H   0  0  0  0  0  0  0  0  0  0  0  0
    3.8288    4.2635   -0.2603 H   0  0  0  0  0  0  0  0  0  0  0  0
   -0.7535   -1.0626    0.2680 C   0  0  0  0  0  0  0  0  0  0  0  0
   -2.8212    0.2549   -0.0421 C   0  0  0  0  0  0  0  0  0  0  0  0
    2.4071   -0.2390   -0.1094 C   0  0  0  0  0  0  0  0  0  0  0  0
    3.5151    2.2782    0.1945 C   0  0  0  0  0  0  0  0  0  0  0  0
    1.2970   -1.9407   -1.6618 O   0  0  0  0  0  0  0  0  0  0  0  0
    2.6050   -2.7541    0.3067 O   0  0  0  0  0  0  0  0  0  0  0  0
    4.0740    3.5490    0.3481 N   0  0  0  0  0  0  0  0  0  0  0  0
   -0.7956   -0.2190   -0.7234 N   0  0  0  0  0  0  0  0  0  0  0  0
   -1.8531    0.4505   -0.8768 N   0  0  0  0  0  0  0  0  0  0  0  0
   -4.1578    0.9509   -0.0548 C   0  0  0  0  0  0  0  0  0  0  0  0
    0.3157   -1.8806    0.6019 N   0  0  0  0  0  0  0  0  0  0  0  0
    1.7020   -1.8421   -0.3033 S   0  0  0  0  0  0  0  0  0  0  0  0
   -2.2995   -0.9717    1.1145 S   0  0  0  0  0  0  0  0  0  0  0  0
   -5.0153   -0.4045   -1.4931 H   0  0  0  0  0  0  0  0  0  0  0  0
   -5.8335    1.1729   -1.3903 H   0  0  0  0  0  0  0  0  0  0  0  0
   -4.2565    1.0397   -2.2050 H   0  0  0  0  0  0  0  0  0  0  0  0
   -3.3391    2.8286   -0.7215 H   0  0  0  0  0  0  0  0  0  0  0  0
   -4.9161    2.9618    0.0931 H   0  0  0  0  0  0  0  0  0  0  0  0
   -3.4443    2.6589    1.0472 H   0  0  0  0  0  0  0  0  0  0  0  0
   -4.5094    0.6317    2.0465 H   0  0  0  0  0  0  0  0  0  0  0  0
   -5.9812    0.9346    1.0924 H   0  0  0  0  0  0  0  0  0  0  0  0
   -5.1630   -0.6428    0.9897 H   0  0  0  0  0  0  0  0  0  0  0  0
    3.5854   -0.7994    1.5841 H   0  0  0  0  0  0  0  0  0  0  0  0
    1.3506    0.5896   -1.7731 H   0  0  0  0  0  0  0  0  0  0  0  0
    4.5703    1.4388    1.8618 H   0  0  0  0  0  0  0  0  0  0  0  0
    2.3331    2.8303   -1.5073 H   0  0  0  0  0  0  0  0  0  0  0  0
 11 23  1  0  0  0  0
 11 21  1  0  0  0  0
 11 18  2  0  0  0  0
 12 23  1  0  0  0  0
 21 22  1  0  0  0  0
 18 19  1  0  0  0  0
 12 20  1  0  0  0  0
 13 22  1  0  0  0  0
 15 22  2  0  0  0  0
 16 22  2  0  0  0  0
  5 20  1  0  0  0  0
  6 20  1  0  0  0  0
  7 20  1  0  0  0  0
  1 13  1  0  0  0  0
  2 13  2  0  0  0  0
  1  3  2  0  0  0  0
  2  4  1  0  0  0  0
  3 14  1  0  0  0  0
 14 17  1  0  0  0  0
 12 19  2  0  0  0  0
  4 14  2  0  0  0  0
  8 21  1  0  0  0  0
  5 24  1  0  0  0  0
  5 25  1  0  0  0  0
  5 26  1  0  0  0  0
  6 27  1  0  0  0  0
  6 28  1  0  0  0  0
  6 29  1  0  0  0  0
  7 30  1  0  0  0  0
  7 31  1  0  0  0  0
  7 32  1  0  0  0  0
  1 33  1  0  0  0  0
  2 34  1  0  0  0  0
  3 35  1  0  0  0  0
  4 36  1  0  0  0  0
  9 17  1  0  0  0  0
 10 17  1  0  0  0  0
M  END
$$$$
