C3H7N3O2
APtclcactv12211716353D 0   0.00000     0.00000
 
 15 14  0  0  0  0  0  0  0  0999 V2000
    1.9038   -1.2512    0.0010 O   0  0  0  0  0  0  0  0  0  0  0  0
    1.8476   -0.0442    0.0019 C   0  0  0  0  0  0  0  0  0  0  0  0
    2.9775    0.6803   -0.0025 O   0  0  0  0  0  0  0  0  0  0  0  0
    0.5088    0.6477    0.0016 C   0  0  0  0  0  0  0  0  0  0  0  0
   -0.5592   -0.3551    0.0003 N   0  0  0  0  0  0  0  0  0  0  0  0
   -1.8753    0.0424   -0.0002 C   0  0  0  0  0  0  0  0  0  0  0  0
   -2.8776   -0.8987   -0.0015 N   0  0  0  0  0  0  0  0  0  0  0  0
   -2.1729    1.3114    0.0005 N   0  0  0  0  0  0  0  0  0  0  0  0
    3.8121    0.1919   -0.0063 H   0  0  0  0  0  0  0  0  0  0  0  0
    0.4215    1.2704    0.8920 H   0  0  0  0  0  0  0  0  0  0  0  0
    0.4225    1.2717   -0.8879 H   0  0  0  0  0  0  0  0  0  0  0  0
   -0.3378   -1.2995   -0.0003 H   0  0  0  0  0  0  0  0  0  0  0  0
   -2.6562   -1.8431   -0.0021 H   0  0  0  0  0  0  0  0  0  0  0  0
   -3.8062   -0.6182   -0.0018 H   0  0  0  0  0  0  0  0  0  0  0  0
   -3.1014    1.5918    0.0002 H   0  0  0  0  0  0  0  0  0  0  0  0
  1  2  2  0  0  0  0
  2  3  1  0  0  0  0
  2  4  1  0  0  0  0
  4  5  1  0  0  0  0
  5  6  1  0  0  0  0
  6  7  1  0  0  0  0
  6  8  2  0  0  0  0
  3  9  1  0  0  0  0
  4 10  1  0  0  0  0
  4 11  1  0  0  0  0
  5 12  1  0  0  0  0
  7 13  1  0  0  0  0
  7 14  1  0  0  0  0
  8 15  1  0  0  0  0
M  END
$$$$
