C2H7NO6S
APtclcactv12211717013D 0   0.00000     0.00000
 
 17 15  0  0  0  0  0  0  0  0999 V2000
   -6.0969   -0.0604   -0.0915 S   0  0  0  0  0  0  0  0  0  0  0  0
   -7.1036   -1.0598   -0.0080 O   0  0  0  0  0  0  0  0  0  0  0  0
   -5.7334    0.5768   -1.3086 O   0  0  0  0  0  0  0  0  0  0  0  0
   -6.5106    1.0475    0.8666 O   0  0  0  0  0  0  0  0  0  0  0  0
   -4.8246   -0.6844    0.4637 O   0  0  0  0  0  0  0  0  0  0  0  0
    9.2752   -1.2652   -0.3639 N   0  0  0  0  0  0  0  0  0  0  0  0
    7.9960   -1.0132    0.3128 C   0  0  0  0  0  0  0  0  0  0  0  0
    7.5845    0.4196    0.0918 C   0  0  0  0  0  0  0  0  0  0  0  0
    8.2849    1.1553   -0.5624 O   0  0  0  0  0  0  0  0  0  0  0  0
    6.4397    0.8785    0.6216 O   0  0  0  0  0  0  0  0  0  0  0  0
   -7.3162    1.5137    0.6045 H   0  0  0  0  0  0  0  0  0  0  0  0
   -4.4733   -1.4066   -0.0750 H   0  0  0  0  0  0  0  0  0  0  0  0
    9.9835   -0.6184   -0.0507 H   0  0  0  0  0  0  0  0  0  0  0  0
    9.5729   -2.2200   -0.2305 H   0  0  0  0  0  0  0  0  0  0  0  0
    7.2330   -1.6771   -0.0935 H   0  0  0  0  0  0  0  0  0  0  0  0
    8.1074   -1.1985    1.3812 H   0  0  0  0  0  0  0  0  0  0  0  0
    6.2179    1.8044    0.4527 H   0  0  0  0  0  0  0  0  0  0  0  0
  1  2  2  0  0  0  0
  1  3  2  0  0  0  0
  1  4  1  0  0  0  0
  1  5  1  0  0  0  0
  6  7  1  0  0  0  0
  7  8  1  0  0  0  0
  8  9  2  0  0  0  0
  8 10  1  0  0  0  0
  4 11  1  0  0  0  0
  5 12  1  0  0  0  0
  6 13  1  0  0  0  0
  6 14  1  0  0  0  0
  7 15  1  0  0  0  0
  7 16  1  0  0  0  0
 10 17  1  0  0  0  0
M  END
$$$$
