C15H17NO7
APtclcactv12211717083D 0   0.00000     0.00000
 
 40 40  0  0  0  0  0  0  0  0999 V2000
    4.4921   -1.9827   -0.3492 C   0  0  0  0  0  0  0  0  0  0  0  0
    4.7002   -3.4532   -0.0935 C   0  0  0  0  0  0  0  0  0  0  0  0
    4.3534   -1.5797   -1.4798 O   0  0  0  0  0  0  0  0  0  0  0  0
    4.4551   -1.1208    0.6802 O   0  0  0  0  0  0  0  0  0  0  0  0
    4.3597    0.1983    0.3761 C   0  0  0  0  0  0  0  0  0  0  0  0
    3.1024    0.7873    0.1839 C   0  0  0  0  0  0  0  0  0  0  0  0
    1.8768   -0.0227    0.3109 C   0  0  0  0  0  0  0  0  0  0  0  0
    1.9550   -1.2043    0.5829 O   0  0  0  0  0  0  0  0  0  0  0  0
    0.6701    0.5475    0.1252 O   0  0  0  0  0  0  0  0  0  0  0  0
   -0.4929   -0.3103    0.2660 C   0  0  0  0  0  0  0  0  0  0  0  0
   -1.7434    0.4954    0.0248 C   0  0  0  0  0  0  0  0  0  0  0  0
   -1.6624    1.6763   -0.2396 O   0  0  0  0  0  0  0  0  0  0  0  0
   -2.9518   -0.0963    0.1030 N   0  0  0  0  0  0  0  0  0  0  0  0
   -4.1675    0.6869   -0.1314 C   0  0  0  0  0  0  0  0  0  0  0  0
   -5.3746   -0.2033    0.0146 C   0  0  0  0  0  0  0  0  0  0  0  0
   -5.2339   -1.3721    0.2867 O   0  0  0  0  0  0  0  0  0  0  0  0
   -6.6061    0.3021   -0.1575 O   0  0  0  0  0  0  0  0  0  0  0  0
   -7.7222   -0.6134   -0.0014 C   0  0  0  0  0  0  0  0  0  0  0  0
   -9.0346    0.1381   -0.2332 C   0  0  0  0  0  0  0  0  0  0  0  0
    3.0171    2.1467   -0.1283 C   0  0  0  0  0  0  0  0  0  0  0  0
    4.1662    2.8981   -0.2451 C   0  0  0  0  0  0  0  0  0  0  0  0
    5.4070    2.3119   -0.0547 C   0  0  0  0  0  0  0  0  0  0  0  0
    5.5053    0.9709    0.2599 C   0  0  0  0  0  0  0  0  0  0  0  0
    5.7668   -3.6775   -0.1101 H   0  0  0  0  0  0  0  0  0  0  0  0
    4.2892   -3.7142    0.8816 H   0  0  0  0  0  0  0  0  0  0  0  0
    4.1953   -4.0315   -0.8673 H   0  0  0  0  0  0  0  0  0  0  0  0
   -0.4369   -1.1205   -0.4610 H   0  0  0  0  0  0  0  0  0  0  0  0
   -0.5176   -0.7267    1.2730 H   0  0  0  0  0  0  0  0  0  0  0  0
   -3.0166   -1.0407    0.3145 H   0  0  0  0  0  0  0  0  0  0  0  0
   -4.2235    1.4972    0.5955 H   0  0  0  0  0  0  0  0  0  0  0  0
   -4.1429    1.1033   -1.1384 H   0  0  0  0  0  0  0  0  0  0  0  0
   -7.6333   -1.4217   -0.7273 H   0  0  0  0  0  0  0  0  0  0  0  0
   -7.7140   -1.0279    1.0067 H   0  0  0  0  0  0  0  0  0  0  0  0
   -9.0429    0.5526   -1.2413 H   0  0  0  0  0  0  0  0  0  0  0  0
   -9.8725   -0.5492   -0.1160 H   0  0  0  0  0  0  0  0  0  0  0  0
   -9.1235    0.9464    0.4927 H   0  0  0  0  0  0  0  0  0  0  0  0
    2.0520    2.6076   -0.2783 H   0  0  0  0  0  0  0  0  0  0  0  0
    4.0994    3.9486   -0.4864 H   0  0  0  0  0  0  0  0  0  0  0  0
    6.3025    2.9082   -0.1489 H   0  0  0  0  0  0  0  0  0  0  0  0
    6.4762    0.5213    0.4071 H   0  0  0  0  0  0  0  0  0  0  0  0
  1  2  1  0  0  0  0
  1  3  2  0  0  0  0
  1  4  1  0  0  0  0
  4  5  1  0  0  0  0
  5  6  2  0  0  0  0
  6  7  1  0  0  0  0
  7  8  2  0  0  0  0
  7  9  1  0  0  0  0
  9 10  1  0  0  0  0
 10 11  1  0  0  0  0
 11 12  2  0  0  0  0
 11 13  1  0  0  0  0
 13 14  1  0  0  0  0
 14 15  1  0  0  0  0
 15 16  2  0  0  0  0
 15 17  1  0  0  0  0
 17 18  1  0  0  0  0
 18 19  1  0  0  0  0
  6 20  1  0  0  0  0
 20 21  2  0  0  0  0
 21 22  1  0  0  0  0
 22 23  2  0  0  0  0
  5 23  1  0  0  0  0
  2 24  1  0  0  0  0
  2 25  1  0  0  0  0
  2 26  1  0  0  0  0
 10 27  1  0  0  0  0
 10 28  1  0  0  0  0
 13 29  1  0  0  0  0
 14 30  1  0  0  0  0
 14 31  1  0  0  0  0
 18 32  1  0  0  0  0
 18 33  1  0  0  0  0
 19 34  1  0  0  0  0
 19 35  1  0  0  0  0
 19 36  1  0  0  0  0
 20 37  1  0  0  0  0
 21 38  1  0  0  0  0
 22 39  1  0  0  0  0
 23 40  1  0  0  0  0
M  END
$$$$
