C4H8N2O3
APtclcactv12211716393D 0   0.00000     0.00000
 
 17 16  0  0  0  0  0  0  0  0999 V2000
    2.5007   -0.8607    0.0118 C   0  0  0  0  0  0  0  0  0  0  0  0
   -1.0140    0.6565    0.0050 C   0  0  0  0  0  0  0  0  0  0  0  0
   -0.0968   -1.2584   -0.0004 H   0  0  0  0  0  0  0  0  0  0  0  0
    4.5579   -0.7817    0.0203 H   0  0  0  0  0  0  0  0  0  0  0  0
    3.8396    0.5006   -0.7578 H   0  0  0  0  0  0  0  0  0  0  0  0
    1.5985    1.3201    0.0185 O   0  0  0  0  0  0  0  0  0  0  0  0
   -2.3386   -1.2922   -0.0094 O   0  0  0  0  0  0  0  0  0  0  0  0
   -3.4822    0.5987   -0.0050 O   0  0  0  0  0  0  0  0  0  0  0  0
    1.3650    0.1299    0.0120 C   0  0  0  0  0  0  0  0  0  0  0  0
   -2.3266   -0.0840   -0.0037 C   0  0  0  0  0  0  0  0  0  0  0  0
   -4.2984    0.0802   -0.0107 H   0  0  0  0  0  0  0  0  0  0  0  0
    3.7801   -0.1390    0.0203 N   0  0  0  0  0  0  0  0  0  0  0  0
    0.0899   -0.3066    0.0049 N   0  0  0  0  0  0  0  0  0  0  0  0
    2.4331   -1.4910    0.8986 H   0  0  0  0  0  0  0  0  0  0  0  0
    2.4402   -1.4826   -0.8814 H   0  0  0  0  0  0  0  0  0  0  0  0
   -0.9465    1.2867   -0.8817 H   0  0  0  0  0  0  0  0  0  0  0  0
   -0.9536    1.2783    0.8982 H   0  0  0  0  0  0  0  0  0  0  0  0
  9 13  1  0  0  0  0
  1  9  1  0  0  0  0
  6  9  2  0  0  0  0
  2 13  1  0  0  0  0
  1 12  1  0  0  0  0
  2 10  1  0  0  0  0
  8 10  1  0  0  0  0
  7 10  2  0  0  0  0
  3 13  1  0  0  0  0
  1 14  1  0  0  0  0
  1 15  1  0  0  0  0
  2 16  1  0  0  0  0
  2 17  1  0  0  0  0
  4 12  1  0  0  0  0
  5 12  1  0  0  0  0
  8 11  1  0  0  0  0
M  END
$$$$
