C17H19ClO6
APtclcactv12211717363D 0   0.00000     0.00000
 
 43 45  0  0  1  0  0  0  0  0999 V2000
   -1.4807    0.2607   -0.2914 C   0  0  2  0  0  0  0  0  0  0  0  0
   -2.2902    0.2055   -1.5857 C   0  0  2  0  0  0  0  0  0  0  0  0
    3.1953    0.6394   -0.1011 C   0  0  0  0  0  0  0  0  0  0  0  0
   -3.1823    1.4447   -1.6825 C   0  0  0  0  0  0  0  0  0  0  0  0
   -2.2646    1.2359    3.1462 C   0  0  0  0  0  0  0  0  0  0  0  0
    3.5405    3.3125   -0.2595 C   0  0  0  0  0  0  0  0  0  0  0  0
    5.4226   -0.8640    0.0980 C   0  0  0  0  0  0  0  0  0  0  0  0
    2.0758    1.4435   -0.2042 C   0  0  0  0  0  0  0  0  0  0  0  0
    1.7937   -1.3238   -0.0362 C   0  0  0  0  0  0  0  0  0  0  0  0
    3.0529   -0.7402   -0.0171 C   0  0  0  0  0  0  0  0  0  0  0  0
   -0.8336    2.6215   -0.4131 O   0  0  0  0  0  0  0  0  0  0  0  0
   -5.1915   -1.2164   -0.3725 O   0  0  0  0  0  0  0  0  0  0  0  0
   -3.1633   -1.0540   -1.5889 C   0  0  0  0  0  0  0  0  0  0  0  0
   -3.2876   -0.8841    1.0002 C   0  0  0  0  0  0  0  0  0  0  0  0
   -1.6306    0.4859    2.1081 O   0  0  0  0  0  0  0  0  0  0  0  0
    2.2105    2.7906   -0.2860 O   0  0  0  0  0  0  0  0  0  0  0  0
    4.1556   -1.5246    0.0835 O   0  0  0  0  0  0  0  0  0  0  0  0
   -2.4101    0.3694    0.9161 C   0  0  0  0  0  0  0  0  0  0  0  0
   -0.5425    1.4465   -0.3244 C   0  0  0  0  0  0  0  0  0  0  0  0
   -3.9943   -1.0658   -0.3249 C   0  0  0  0  0  0  0  0  0  0  0  0
    0.7968    0.8595   -0.2243 C   0  0  0  0  0  0  0  0  0  0  0  0
    0.6548   -0.5361   -0.1397 C   0  0  0  0  0  0  0  0  0  0  0  0
    1.6417   -3.0499    0.0695 Cl  0  0  0  0  0  0  0  0  0  0  0  0
   -0.6516   -0.8943   -0.1761 O   0  0  0  0  0  0  0  0  0  0  0  0
   -1.6113    0.1791   -2.4380 H   0  0  0  0  0  0  0  0  0  0  0  0
   -3.0436    1.2498    0.8088 H   0  0  0  0  0  0  0  0  0  0  0  0
   -3.8201   -1.0420   -2.4588 H   0  0  0  0  0  0  0  0  0  0  0  0
   -2.5285   -1.9396   -1.6181 H   0  0  0  0  0  0  0  0  0  0  0  0
   -2.6642   -1.7545    1.2050 H   0  0  0  0  0  0  0  0  0  0  0  0
   -4.0243   -0.7628    1.7944 H   0  0  0  0  0  0  0  0  0  0  0  0
   -2.5613    2.3405   -1.6803 H   0  0  0  0  0  0  0  0  0  0  0  0
   -3.7599    1.4053   -2.6061 H   0  0  0  0  0  0  0  0  0  0  0  0
   -3.8613    1.4711   -0.8302 H   0  0  0  0  0  0  0  0  0  0  0  0
   -1.6092    1.2782    4.0161 H   0  0  0  0  0  0  0  0  0  0  0  0
   -2.4653    2.2474    2.7930 H   0  0  0  0  0  0  0  0  0  0  0  0
   -3.2029    0.7542    3.4213 H   0  0  0  0  0  0  0  0  0  0  0  0
    4.1799    1.0831   -0.0855 H   0  0  0  0  0  0  0  0  0  0  0  0
    4.1055    2.9100   -1.1003 H   0  0  0  0  0  0  0  0  0  0  0  0
    3.5058    4.3995   -0.3320 H   0  0  0  0  0  0  0  0  0  0  0  0
    4.0247    3.0259    0.6741 H   0  0  0  0  0  0  0  0  0  0  0  0
    6.2177   -1.6048    0.1818 H   0  0  0  0  0  0  0  0  0  0  0  0
    5.5483   -0.2990   -0.8256 H   0  0  0  0  0  0  0  0  0  0  0  0
    5.4682   -0.1842    0.9488 H   0  0  0  0  0  0  0  0  0  0  0  0
  9 23  1  0  0  0  0
  1 24  1  0  0  0  0
 22 24  1  0  0  0  0
 15 18  1  0  0  0  0
  5 15  1  0  0  0  0
 11 19  2  0  0  0  0
 12 20  2  0  0  0  0
  8 16  1  0  0  0  0
  6 16  1  0  0  0  0
 10 17  1  0  0  0  0
  7 17  1  0  0  0  0
  1  2  1  0  0  0  0
  1 18  1  0  0  0  0
  1 19  1  0  0  0  0
  2 13  1  0  0  0  0
  2  4  1  0  0  0  0
  2 25  1  0  0  0  0
 14 18  1  0  0  0  0
 18 26  1  0  0  0  0
 13 20  1  0  0  0  0
 13 27  1  0  0  0  0
 13 28  1  0  0  0  0
 14 20  1  0  0  0  0
 14 29  1  0  0  0  0
 14 30  1  0  0  0  0
 19 21  1  0  0  0  0
  4 31  1  0  0  0  0
  4 32  1  0  0  0  0
  4 33  1  0  0  0  0
 21 22  2  0  0  0  0
  8 21  1  0  0  0  0
  9 22  1  0  0  0  0
  3  8  2  0  0  0  0
  9 10  2  0  0  0  0
  5 34  1  0  0  0  0
  5 35  1  0  0  0  0
  5 36  1  0  0  0  0
  3 10  1  0  0  0  0
  3 37  1  0  0  0  0
  6 38  1  0  0  0  0
  6 39  1  0  0  0  0
  6 40  1  0  0  0  0
  7 41  1  0  0  0  0
  7 42  1  0  0  0  0
  7 43  1  0  0  0  0
M  END
$$$$
