C7H8O2
APtclcactv12151716183D 0   0.00000     0.00000
 
 17 17  0  0  0  0  0  0  0  0999 V2000
    0.4827    0.0130   -0.0089 C   0  0  0  0  0  0  0  0  0  0  0  0
   -0.5307   -0.9412   -0.0196 C   0  0  0  0  0  0  0  0  0  0  0  0
   -0.2200   -2.2651   -0.0354 O   0  0  0  0  0  0  0  0  0  0  0  0
   -1.8563   -0.5393   -0.0135 C   0  0  0  0  0  0  0  0  0  0  0  0
   -2.1705    0.8073    0.0031 C   0  0  0  0  0  0  0  0  0  0  0  0
   -1.1642    1.7547    0.0137 C   0  0  0  0  0  0  0  0  0  0  0  0
    0.1611    1.3603    0.0078 C   0  0  0  0  0  0  0  0  0  0  0  0
    1.7856   -0.3767   -0.0090 O   0  0  0  0  0  0  0  0  0  0  0  0
    2.7720    0.6573    0.0023 C   0  0  0  0  0  0  0  0  0  0  0  0
   -0.1296   -2.6584    0.8433 H   0  0  0  0  0  0  0  0  0  0  0  0
   -2.6445   -1.2776   -0.0222 H   0  0  0  0  0  0  0  0  0  0  0  0
   -3.2044    1.1194    0.0074 H   0  0  0  0  0  0  0  0  0  0  0  0
   -1.4136    2.8055    0.0267 H   0  0  0  0  0  0  0  0  0  0  0  0
    0.9455    2.1026    0.0157 H   0  0  0  0  0  0  0  0  0  0  0  0
    2.6532    1.2825   -0.8827 H   0  0  0  0  0  0  0  0  0  0  0  0
    2.6488    1.2671    0.8972 H   0  0  0  0  0  0  0  0  0  0  0  0
    3.7664    0.2108    0.0008 H   0  0  0  0  0  0  0  0  0  0  0  0
  1  2  1  0  0  0  0
  2  3  1  0  0  0  0
  2  4  2  0  0  0  0
  4  5  1  0  0  0  0
  5  6  2  0  0  0  0
  6  7  1  0  0  0  0
  1  7  2  0  0  0  0
  1  8  1  0  0  0  0
  8  9  1  0  0  0  0
  3 10  1  0  0  0  0
  4 11  1  0  0  0  0
  5 12  1  0  0  0  0
  6 13  1  0  0  0  0
  7 14  1  0  0  0  0
  9 15  1  0  0  0  0
  9 16  1  0  0  0  0
  9 17  1  0  0  0  0
M  END
$$$$
