C2H7N3O3
APtclcactv12211716363D 0   0.00000     0.00000
 
 15 13  0  0  0  0  0  0  0  0999 V2000
   -6.2300   -0.0430   -0.0328 C   0  0  0  0  0  0  0  0  0  0  0  0
   -6.6615    1.2253    0.0904 O   0  0  0  0  0  0  0  0  0  0  0  0
   -5.0061   -0.2916   -0.5329 O   0  0  0  0  0  0  0  0  0  0  0  0
   -6.9434   -0.9632    0.3120 O   0  0  0  0  0  0  0  0  0  0  0  0
    6.6862   -1.3126    0.0355 N   0  0  0  0  0  0  0  0  0  0  0  0
    6.5455    0.0549    0.0303 C   0  0  0  0  0  0  0  0  0  0  0  0
    7.5133    0.8080   -0.4113 N   0  0  0  0  0  0  0  0  0  0  0  0
    5.3838    0.6282    0.4909 N   0  0  0  0  0  0  0  0  0  0  0  0
   -7.5479    1.3540    0.4548 H   0  0  0  0  0  0  0  0  0  0  0  0
   -4.7401   -1.2187   -0.6023 H   0  0  0  0  0  0  0  0  0  0  0  0
    7.5058   -1.7171   -0.2894 H   0  0  0  0  0  0  0  0  0  0  0  0
    5.9675   -1.8729    0.3679 H   0  0  0  0  0  0  0  0  0  0  0  0
    8.3329    0.4036   -0.7362 H   0  0  0  0  0  0  0  0  0  0  0  0
    4.6635    0.0678    0.8195 H   0  0  0  0  0  0  0  0  0  0  0  0
    5.2845    1.5931    0.4872 H   0  0  0  0  0  0  0  0  0  0  0  0
  1  2  1  0  0  0  0
  1  3  1  0  0  0  0
  1  4  2  0  0  0  0
  5  6  1  0  0  0  0
  6  7  2  0  0  0  0
  6  8  1  0  0  0  0
  2  9  1  0  0  0  0
  3 10  1  0  0  0  0
  5 11  1  0  0  0  0
  5 12  1  0  0  0  0
  7 13  1  0  0  0  0
  8 14  1  0  0  0  0
  8 15  1  0  0  0  0
M  END
$$$$
