C2HBrClF3
APtclcactv12101715333D 0   0.00000     0.00000
 
  8  7  0  0  0  0  0  0  0  0999 V2000
   -0.2027   -0.3469    0.5890 C   0  0  0  0  0  0  0  0  0  0  0  0
   -0.5058   -2.0258    0.0058 Cl  0  0  0  0  0  0  0  0  0  0  0  0
    1.5801    0.2388    0.0025 Br  0  0  0  0  0  0  0  0  0  0  0  0
   -1.2635    0.5927    0.0123 C   0  0  0  0  0  0  0  0  0  0  0  0
   -2.5321    0.1760    0.4296 F   0  0  0  0  0  0  0  0  0  0  0  0
   -1.0284    1.8954    0.4648 F   0  0  0  0  0  0  0  0  0  0  0  0
   -1.2002    0.5659   -1.3850 F   0  0  0  0  0  0  0  0  0  0  0  0
   -0.2521   -0.3260    1.6777 H   0  0  0  0  0  0  0  0  0  0  0  0
  1  2  1  0  0  0  0
  1  3  1  0  0  0  0
  1  4  1  0  0  0  0
  4  5  1  0  0  0  0
  4  6  1  0  0  0  0
  4  7  1  0  0  0  0
  1  8  1  0  0  0  0
M  END
$$$$
