C16H12O6
APtclcactv12211717103D 0   0.00000     0.00000
 
 34 37  0  0  0  0  0  0  0  0999 V2000
    1.1480    1.6624   -0.2098 C   0  0  0  0  0  0  0  0  0  0  0  0
    2.3511    2.3052   -0.1722 C   0  0  0  0  0  0  0  0  0  0  0  0
    0.0292   -3.3860   -1.6136 H   0  0  0  0  0  0  0  0  0  0  0  0
    5.0735   -0.7809   -0.5278 H   0  0  0  0  0  0  0  0  0  0  0  0
   -4.7675    2.7449   -0.0145 H   0  0  0  0  0  0  0  0  0  0  0  0
    5.1382    2.3400   -0.8284 H   0  0  0  0  0  0  0  0  0  0  0  0
    3.5037    0.1972    0.1335 C   0  0  0  0  0  0  0  0  0  0  0  0
    3.5310    1.5822   -0.0002 C   0  0  0  0  0  0  0  0  0  0  0  0
   -5.3573    0.5475    0.0679 O   0  0  0  0  0  0  0  0  0  0  0  0
   -1.4802   -2.3607    0.4139 C   0  0  0  0  0  0  0  0  0  0  0  0
    1.0547   -2.4486    0.6980 C   0  0  0  0  0  0  0  0  0  0  0  0
    0.0251   -2.4236   -1.5194 O   0  0  0  0  0  0  0  0  0  0  0  0
    4.6641   -0.4944    0.3001 O   0  0  0  0  0  0  0  0  0  0  0  0
   -3.8012    2.7217   -0.0411 O   0  0  0  0  0  0  0  0  0  0  0  0
    4.7191    2.2364    0.0369 O   0  0  0  0  0  0  0  0  0  0  0  0
   -3.2761    1.4683    0.0149 C   0  0  0  0  0  0  0  0  0  0  0  0
   -4.1480    0.3624    0.1023 C   0  0  0  0  0  0  0  0  0  0  0  0
    1.1001    0.2691   -0.0709 C   0  0  0  0  0  0  0  0  0  0  0  0
    2.2929   -0.4770    0.0977 C   0  0  0  0  0  0  0  0  0  0  0  0
    2.2535   -1.8252    0.2200 O   0  0  0  0  0  0  0  0  0  0  0  0
   -1.9215    1.3149   -0.0154 C   0  0  0  0  0  0  0  0  0  0  0  0
   -3.6516   -0.9564    0.2290 C   0  0  0  0  0  0  0  0  0  0  0  0
   -0.1120   -0.4471   -0.0877 C   0  0  0  0  0  0  0  0  0  0  0  0
   -1.4155   -0.0148    0.0367 C   0  0  0  0  0  0  0  0  0  0  0  0
   -2.3040   -1.1142    0.2180 C   0  0  0  0  0  0  0  0  0  0  0  0
   -0.1125   -1.9720   -0.1706 C   0  0  0  0  0  0  0  0  0  0  0  0
   -1.3917   -2.6011    1.4734 H   0  0  0  0  0  0  0  0  0  0  0  0
   -1.9105   -3.1971   -0.1370 H   0  0  0  0  0  0  0  0  0  0  0  0
    1.1492   -3.5320    0.6245 H   0  0  0  0  0  0  0  0  0  0  0  0
    0.8809   -2.1638    1.7356 H   0  0  0  0  0  0  0  0  0  0  0  0
   -1.2602    2.1665   -0.0767 H   0  0  0  0  0  0  0  0  0  0  0  0
    0.2361    2.2258   -0.3417 H   0  0  0  0  0  0  0  0  0  0  0  0
   -4.3167   -1.8012    0.3303 H   0  0  0  0  0  0  0  0  0  0  0  0
    2.3897    3.3795   -0.2766 H   0  0  0  0  0  0  0  0  0  0  0  0
 19 20  1  0  0  0  0
 11 20  1  0  0  0  0
 12 26  1  0  0  0  0
  7 13  1  0  0  0  0
 14 16  1  0  0  0  0
  8 15  1  0  0  0  0
  9 17  2  0  0  0  0
 23 26  1  0  0  0  0
 23 24  2  0  0  0  0
 18 23  1  0  0  0  0
 10 26  1  0  0  0  0
 11 26  1  0  0  0  0
 24 25  1  0  0  0  0
 21 24  1  0  0  0  0
 18 19  2  0  0  0  0
  1 18  1  0  0  0  0
 10 25  1  0  0  0  0
 22 25  2  0  0  0  0
  7 19  1  0  0  0  0
 16 21  2  0  0  0  0
  7  8  2  0  0  0  0
  1  2  2  0  0  0  0
 17 22  1  0  0  0  0
 16 17  1  0  0  0  0
  2  8  1  0  0  0  0
  3 12  1  0  0  0  0
  4 13  1  0  0  0  0
  5 14  1  0  0  0  0
  6 15  1  0  0  0  0
 10 27  1  0  0  0  0
 10 28  1  0  0  0  0
 11 29  1  0  0  0  0
 11 30  1  0  0  0  0
 21 31  1  0  0  0  0
  1 32  1  0  0  0  0
 22 33  1  0  0  0  0
  2 34  1  0  0  0  0
M  END
$$$$
