C10H5Cl7
APtclcactv12151716543D 0   0.00000     0.00000
 
 22 24  0  0  0  0  0  0  0  0999 V2000
   -2.4659   -0.0029    0.3759 C   0  0  0  0  0  0  0  0  0  0  0  0
   -0.9544   -2.1089   -1.4373 Cl  0  0  0  0  0  0  0  0  0  0  0  0
    1.5107    2.6889    0.3072 Cl  0  0  0  0  0  0  0  0  0  0  0  0
    1.2768    0.4051   -2.3195 Cl  0  0  0  0  0  0  0  0  0  0  0  0
   -1.3699    1.4450   -1.3928 Cl  0  0  0  0  0  0  0  0  0  0  0  0
    1.8127   -2.8281    0.4297 Cl  0  0  0  0  0  0  0  0  0  0  0  0
    3.2580    0.0156    1.4614 Cl  0  0  0  0  0  0  0  0  0  0  0  0
   -3.7804   -0.8140    1.3060 Cl  0  0  0  0  0  0  0  0  0  0  0  0
   -1.4392    1.9466    1.1192 C   0  0  0  0  0  0  0  0  0  0  0  0
   -2.5289    1.4860    0.5855 C   0  0  0  0  0  0  0  0  0  0  0  0
   -1.0937   -0.4603    0.8953 C   0  0  0  0  0  0  0  0  0  0  0  0
   -0.4285    0.8611    1.3722 C   0  0  0  0  0  0  0  0  0  0  0  0
    1.1377   -1.2351    0.2862 C   0  0  0  0  0  0  0  0  0  0  0  0
    1.7058   -0.1148    0.6951 C   0  0  0  0  0  0  0  0  0  0  0  0
   -0.2243   -0.8891   -0.3282 C   0  0  0  0  0  0  0  0  0  0  0  0
    0.7611    1.0507    0.3784 C   0  0  0  0  0  0  0  0  0  0  0  0
    0.1103    0.5160   -0.9492 C   0  0  0  0  0  0  0  0  0  0  0  0
   -1.1481   -1.2231    1.6721 H   0  0  0  0  0  0  0  0  0  0  0  0
   -0.1026    0.8163    2.4114 H   0  0  0  0  0  0  0  0  0  0  0  0
   -2.5605   -0.2359   -0.6846 H   0  0  0  0  0  0  0  0  0  0  0  0
   -1.2768    2.9881    1.3544 H   0  0  0  0  0  0  0  0  0  0  0  0
   -3.3791    2.0981    0.3229 H   0  0  0  0  0  0  0  0  0  0  0  0
  2 15  1  0  0  0  0
  3 16  1  0  0  0  0
  4 17  1  0  0  0  0
  5 17  1  0  0  0  0
  6 13  1  0  0  0  0
  7 14  1  0  0  0  0
  1  8  1  0  0  0  0
 15 17  1  0  0  0  0
 11 15  1  0  0  0  0
 13 15  1  0  0  0  0
 16 17  1  0  0  0  0
 12 16  1  0  0  0  0
 14 16  1  0  0  0  0
 11 12  1  0  0  0  0
  1 11  1  0  0  0  0
  9 12  1  0  0  0  0
 13 14  2  0  0  0  0
  1 10  1  0  0  0  0
  9 10  2  0  0  0  0
 11 18  1  0  0  0  0
 12 19  1  0  0  0  0
  1 20  1  0  0  0  0
  9 21  1  0  0  0  0
 10 22  1  0  0  0  0
M  END
$$$$
