C12H3Cl7
APtclcactv12111704503D 0   0.00000     0.00000
 
 22 23  0  0  0  0  0  0  0  0999 V2000
   -4.8918   -0.0004    1.2383 Cl  0  0  0  0  0  0  0  0  0  0  0  0
   -3.7261    0.0012   -0.0481 C   0  0  0  0  0  0  0  0  0  0  0  0
   -2.3747    0.0003    0.2448 C   0  0  0  0  0  0  0  0  0  0  0  0
   -1.4406    0.0011   -0.7902 C   0  0  0  0  0  0  0  0  0  0  0  0
   -1.8755    0.0028   -2.1143 C   0  0  0  0  0  0  0  0  0  0  0  0
   -3.2266    0.0038   -2.3950 C   0  0  0  0  0  0  0  0  0  0  0  0
   -4.1504   -0.0023   -1.3653 C   0  0  0  0  0  0  0  0  0  0  0  0
    0.0108    0.0005   -0.4832 C   0  0  0  0  0  0  0  0  0  0  0  0
    0.6953    1.2065   -0.3374 C   0  0  0  0  0  0  0  0  0  0  0  0
    2.0476    1.2007   -0.0509 C   0  0  0  0  0  0  0  0  0  0  0  0
    2.7225   -0.0004    0.0913 C   0  0  0  0  0  0  0  0  0  0  0  0
    2.0472   -1.2011   -0.0531 C   0  0  0  0  0  0  0  0  0  0  0  0
    0.6937   -1.2059   -0.3339 C   0  0  0  0  0  0  0  0  0  0  0  0
   -0.1514   -2.7115   -0.5146 Cl  0  0  0  0  0  0  0  0  0  0  0  0
    2.9005   -2.7023    0.1255 Cl  0  0  0  0  0  0  0  0  0  0  0  0
    4.4208   -0.0011    0.4511 Cl  0  0  0  0  0  0  0  0  0  0  0  0
    2.9014    2.7012    0.1305 Cl  0  0  0  0  0  0  0  0  0  0  0  0
   -0.1491    2.7127   -0.5158 Cl  0  0  0  0  0  0  0  0  0  0  0  0
   -1.8424   -0.0014    1.8972 Cl  0  0  0  0  0  0  0  0  0  0  0  0
   -1.1559    0.0038   -2.9197 H   0  0  0  0  0  0  0  0  0  0  0  0
   -3.5637    0.0051   -3.4210 H   0  0  0  0  0  0  0  0  0  0  0  0
   -5.2067   -0.0019   -1.5902 H   0  0  0  0  0  0  0  0  0  0  0  0
  1  2  1  0  0  0  0
  2  3  1  0  0  0  0
  3  4  2  0  0  0  0
  4  5  1  0  0  0  0
  5  6  2  0  0  0  0
  6  7  1  0  0  0  0
  2  7  2  0  0  0  0
  4  8  1  0  0  0  0
  8  9  2  0  0  0  0
  9 10  1  0  0  0  0
 10 11  2  0  0  0  0
 11 12  1  0  0  0  0
 12 13  2  0  0  0  0
  8 13  1  0  0  0  0
 13 14  1  0  0  0  0
 12 15  1  0  0  0  0
 11 16  1  0  0  0  0
 10 17  1  0  0  0  0
  9 18  1  0  0  0  0
  3 19  1  0  0  0  0
  5 20  1  0  0  0  0
  6 21  1  0  0  0  0
  7 22  1  0  0  0  0
M  END
$$$$
