C6Cl6
APtclcactv12211717013D 0   0.00000     0.00000
 
 12 12  0  0  0  0  0  0  0  0999 V2000
   -3.0514    0.6519   -0.0023 Cl  0  0  0  0  0  0  0  0  0  0  0  0
   -1.3537    0.2892   -0.0016 C   0  0  0  0  0  0  0  0  0  0  0  0
   -0.4264    1.3170   -0.0002 C   0  0  0  0  0  0  0  0  0  0  0  0
    0.9273    1.0278    0.0004 C   0  0  0  0  0  0  0  0  0  0  0  0
    1.3537   -0.2892   -0.0000 C   0  0  0  0  0  0  0  0  0  0  0  0
    0.4264   -1.3170   -0.0005 C   0  0  0  0  0  0  0  0  0  0  0  0
   -0.9273   -1.0278    0.0033 C   0  0  0  0  0  0  0  0  0  0  0  0
   -2.0903   -2.3166    0.0027 Cl  0  0  0  0  0  0  0  0  0  0  0  0
    0.9611   -2.9686   -0.0017 Cl  0  0  0  0  0  0  0  0  0  0  0  0
    3.0514   -0.6519   -0.0005 Cl  0  0  0  0  0  0  0  0  0  0  0  0
    2.0903    2.3166    0.0010 Cl  0  0  0  0  0  0  0  0  0  0  0  0
   -0.9611    2.9686    0.0004 Cl  0  0  0  0  0  0  0  0  0  0  0  0
  1  2  1  0  0  0  0
  2  3  2  0  0  0  0
  3  4  1  0  0  0  0
  4  5  2  0  0  0  0
  5  6  1  0  0  0  0
  6  7  2  0  0  0  0
  2  7  1  0  0  0  0
  7  8  1  0  0  0  0
  6  9  1  0  0  0  0
  5 10  1  0  0  0  0
  4 11  1  0  0  0  0
  3 12  1  0  0  0  0
M  END
$$$$
