C6F6
APtclcactv12211717013D 0   0.00000     0.00000
 
 12 12  0  0  0  0  0  0  0  0999 V2000
   -2.6821    0.5442   -0.0023 F   0  0  0  0  0  0  0  0  0  0  0  0
   -1.3581    0.2756   -0.0017 C   0  0  0  0  0  0  0  0  0  0  0  0
   -0.4404    1.3139   -0.0001 C   0  0  0  0  0  0  0  0  0  0  0  0
    0.9177    1.0383    0.0004 C   0  0  0  0  0  0  0  0  0  0  0  0
    1.3581   -0.2756   -0.0001 C   0  0  0  0  0  0  0  0  0  0  0  0
    0.4404   -1.3139   -0.0007 C   0  0  0  0  0  0  0  0  0  0  0  0
   -0.9177   -1.0383    0.0031 C   0  0  0  0  0  0  0  0  0  0  0  0
   -1.8124   -2.0506    0.0025 F   0  0  0  0  0  0  0  0  0  0  0  0
    0.8697   -2.5949   -0.0018 F   0  0  0  0  0  0  0  0  0  0  0  0
    2.6821   -0.5442   -0.0005 F   0  0  0  0  0  0  0  0  0  0  0  0
    1.8124    2.0506    0.0010 F   0  0  0  0  0  0  0  0  0  0  0  0
   -0.8697    2.5949    0.0004 F   0  0  0  0  0  0  0  0  0  0  0  0
  1  2  1  0  0  0  0
  2  3  2  0  0  0  0
  3  4  1  0  0  0  0
  4  5  2  0  0  0  0
  5  6  1  0  0  0  0
  6  7  2  0  0  0  0
  2  7  1  0  0  0  0
  7  8  1  0  0  0  0
  6  9  1  0  0  0  0
  5 10  1  0  0  0  0
  4 11  1  0  0  0  0
  3 12  1  0  0  0  0
M  END
$$$$
