C4Cl6
APtclcactv12211716413D 0   0.00000     0.00000
 
 10  9  0  0  0  0  0  0  0  0999 V2000
   -2.0551   -1.8234    0.0373 Cl  0  0  0  0  0  0  0  0  0  0  0  0
   -1.8201   -0.1036    0.0093 C   0  0  0  0  0  0  0  0  0  0  0  0
   -0.5458    0.4169   -0.0740 C   0  0  0  0  0  0  0  0  0  0  0  0
    0.5471   -0.4219   -0.0127 C   0  0  0  0  0  0  0  0  0  0  0  0
    1.8196    0.1065    0.0433 C   0  0  0  0  0  0  0  0  0  0  0  0
    2.0413    1.8163    0.2466 Cl  0  0  0  0  0  0  0  0  0  0  0  0
    3.1998   -0.9380   -0.0894 Cl  0  0  0  0  0  0  0  0  0  0  0  0
    0.3209   -2.1431   -0.0060 Cl  0  0  0  0  0  0  0  0  0  0  0  0
   -0.3174    2.1282   -0.2561 Cl  0  0  0  0  0  0  0  0  0  0  0  0
   -3.1897    0.9608    0.0791 Cl  0  0  0  0  0  0  0  0  0  0  0  0
  1  2  1  0  0  0  0
  2  3  2  0  0  0  0
  3  4  1  0  0  0  0
  4  5  2  0  0  0  0
  5  6  1  0  0  0  0
  5  7  1  0  0  0  0
  4  8  1  0  0  0  0
  3  9  1  0  0  0  0
  2 10  1  0  0  0  0
M  END
$$$$
