C13H19NO2
APtclcactv12091702533D 0   0.00000     0.00000
 
 35 35  0  0  0  0  0  0  0  0999 V2000
    6.0729   -1.2889    0.0014 N   0  0  0  0  0  0  0  0  0  0  0  0
    4.7966   -0.7381    0.0009 C   0  0  0  0  0  0  0  0  0  0  0  0
    4.6369    0.6451    0.0001 C   0  0  0  0  0  0  0  0  0  0  0  0
    3.3794    1.1915    0.0001 C   0  0  0  0  0  0  0  0  0  0  0  0
    2.2564    0.3579    0.0005 C   0  0  0  0  0  0  0  0  0  0  0  0
    0.9032    0.9418   -0.0000 C   0  0  0  0  0  0  0  0  0  0  0  0
    0.7623    2.1488   -0.0007 O   0  0  0  0  0  0  0  0  0  0  0  0
   -0.1778    0.1372    0.0004 O   0  0  0  0  0  0  0  0  0  0  0  0
   -1.4791    0.7814   -0.0002 C   0  0  0  0  0  0  0  0  0  0  0  0
   -2.5762   -0.2850    0.0004 C   0  0  0  0  0  0  0  0  0  0  0  0
   -3.9473    0.3938   -0.0002 C   0  0  0  0  0  0  0  0  0  0  0  0
   -5.0444   -0.6726    0.0003 C   0  0  0  0  0  0  0  0  0  0  0  0
   -6.4156    0.0062   -0.0002 C   0  0  0  0  0  0  0  0  0  0  0  0
   -7.5126   -1.0602    0.0003 C   0  0  0  0  0  0  0  0  0  0  0  0
    2.4204   -1.0310    0.0009 C   0  0  0  0  0  0  0  0  0  0  0  0
    3.6807   -1.5709   -0.0044 C   0  0  0  0  0  0  0  0  0  0  0  0
    6.8510   -0.7097    0.0011 H   0  0  0  0  0  0  0  0  0  0  0  0
    6.1854   -2.2523    0.0060 H   0  0  0  0  0  0  0  0  0  0  0  0
    5.5045    1.2882   -0.0002 H   0  0  0  0  0  0  0  0  0  0  0  0
    3.2562    2.2645    0.0002 H   0  0  0  0  0  0  0  0  0  0  0  0
   -1.5768    1.4037    0.8894 H   0  0  0  0  0  0  0  0  0  0  0  0
   -1.5766    1.4026   -0.8905 H   0  0  0  0  0  0  0  0  0  0  0  0
   -2.4785   -0.9072   -0.8892 H   0  0  0  0  0  0  0  0  0  0  0  0
   -2.4786   -0.9062    0.8907 H   0  0  0  0  0  0  0  0  0  0  0  0
   -4.0450    1.0161    0.8894 H   0  0  0  0  0  0  0  0  0  0  0  0
   -4.0449    1.0150   -0.8905 H   0  0  0  0  0  0  0  0  0  0  0  0
   -4.9467   -1.2948   -0.8893 H   0  0  0  0  0  0  0  0  0  0  0  0
   -4.9469   -1.2938    0.8907 H   0  0  0  0  0  0  0  0  0  0  0  0
   -6.5133    0.6285    0.8894 H   0  0  0  0  0  0  0  0  0  0  0  0
   -6.5131    0.6274   -0.8906 H   0  0  0  0  0  0  0  0  0  0  0  0
   -8.4895   -0.5766   -0.0001 H   0  0  0  0  0  0  0  0  0  0  0  0
   -7.4149   -1.6824   -0.8893 H   0  0  0  0  0  0  0  0  0  0  0  0
   -7.4151   -1.6814    0.8907 H   0  0  0  0  0  0  0  0  0  0  0  0
    1.5553   -1.6775    0.0015 H   0  0  0  0  0  0  0  0  0  0  0  0
    3.8080   -2.6434   -0.0045 H   0  0  0  0  0  0  0  0  0  0  0  0
  1  2  1  0  0  0  0
  2  3  2  0  0  0  0
  3  4  1  0  0  0  0
  4  5  2  0  0  0  0
  5  6  1  0  0  0  0
  6  7  2  0  0  0  0
  6  8  1  0  0  0  0
  8  9  1  0  0  0  0
  9 10  1  0  0  0  0
 10 11  1  0  0  0  0
 11 12  1  0  0  0  0
 12 13  1  0  0  0  0
 13 14  1  0  0  0  0
  5 15  1  0  0  0  0
 15 16  2  0  0  0  0
  2 16  1  0  0  0  0
  1 17  1  0  0  0  0
  1 18  1  0  0  0  0
  3 19  1  0  0  0  0
  4 20  1  0  0  0  0
  9 21  1  0  0  0  0
  9 22  1  0  0  0  0
 10 23  1  0  0  0  0
 10 24  1  0  0  0  0
 11 25  1  0  0  0  0
 11 26  1  0  0  0  0
 12 27  1  0  0  0  0
 12 28  1  0  0  0  0
 13 29  1  0  0  0  0
 13 30  1  0  0  0  0
 14 31  1  0  0  0  0
 14 32  1  0  0  0  0
 14 33  1  0  0  0  0
 15 34  1  0  0  0  0
 16 35  1  0  0  0  0
M  END
$$$$
