C13H18O3
APtclcactv12091702533D 0   0.00000     0.00000
 
 34 34  0  0  0  0  0  0  0  0999 V2000
    6.0253   -1.2651   -0.0182 O   0  0  0  0  0  0  0  0  0  0  0  0
    4.7786   -0.7292   -0.0140 C   0  0  0  0  0  0  0  0  0  0  0  0
    4.6177    0.6515   -0.0074 C   0  0  0  0  0  0  0  0  0  0  0  0
    3.3546    1.1993   -0.0026 C   0  0  0  0  0  0  0  0  0  0  0  0
    2.2331    0.3649   -0.0049 C   0  0  0  0  0  0  0  0  0  0  0  0
    0.8782    0.9473   -0.0003 C   0  0  0  0  0  0  0  0  0  0  0  0
    0.7356    2.1539    0.0055 O   0  0  0  0  0  0  0  0  0  0  0  0
   -0.2016    0.1413   -0.0026 O   0  0  0  0  0  0  0  0  0  0  0  0
   -1.5037    0.7837    0.0022 C   0  0  0  0  0  0  0  0  0  0  0  0
   -2.5993   -0.2842   -0.0012 C   0  0  0  0  0  0  0  0  0  0  0  0
   -3.9714    0.3927    0.0038 C   0  0  0  0  0  0  0  0  0  0  0  0
   -5.0670   -0.6753    0.0004 C   0  0  0  0  0  0  0  0  0  0  0  0
   -6.4391    0.0017    0.0054 C   0  0  0  0  0  0  0  0  0  0  0  0
   -7.5347   -1.0663    0.0020 C   0  0  0  0  0  0  0  0  0  0  0  0
    2.3993   -1.0230   -0.0121 C   0  0  0  0  0  0  0  0  0  0  0  0
    3.6660   -1.5626   -0.0221 C   0  0  0  0  0  0  0  0  0  0  0  0
    6.3879   -1.4246    0.8639 H   0  0  0  0  0  0  0  0  0  0  0  0
    5.4848    1.2954   -0.0056 H   0  0  0  0  0  0  0  0  0  0  0  0
    3.2305    2.2722    0.0033 H   0  0  0  0  0  0  0  0  0  0  0  0
   -1.6010    1.4011    0.8952 H   0  0  0  0  0  0  0  0  0  0  0  0
   -1.6034    1.4094   -0.8847 H   0  0  0  0  0  0  0  0  0  0  0  0
   -2.5021   -0.9017   -0.8943 H   0  0  0  0  0  0  0  0  0  0  0  0
   -2.4996   -0.9099    0.8857 H   0  0  0  0  0  0  0  0  0  0  0  0
   -4.0687    1.0101    0.8968 H   0  0  0  0  0  0  0  0  0  0  0  0
   -4.0711    1.0184   -0.8831 H   0  0  0  0  0  0  0  0  0  0  0  0
   -4.9698   -1.2927   -0.8927 H   0  0  0  0  0  0  0  0  0  0  0  0
   -4.9673   -1.3010    0.8873 H   0  0  0  0  0  0  0  0  0  0  0  0
   -6.5363    0.6191    0.8984 H   0  0  0  0  0  0  0  0  0  0  0  0
   -6.5388    0.6274   -0.8815 H   0  0  0  0  0  0  0  0  0  0  0  0
   -7.4374   -1.6837   -0.8910 H   0  0  0  0  0  0  0  0  0  0  0  0
   -7.4350   -1.6920    0.8889 H   0  0  0  0  0  0  0  0  0  0  0  0
   -8.5122   -0.5840    0.0056 H   0  0  0  0  0  0  0  0  0  0  0  0
    1.5354   -1.6712   -0.0139 H   0  0  0  0  0  0  0  0  0  0  0  0
    3.7954   -2.6348   -0.0276 H   0  0  0  0  0  0  0  0  0  0  0  0
  1  2  1  0  0  0  0
  2  3  2  0  0  0  0
  3  4  1  0  0  0  0
  4  5  2  0  0  0  0
  5  6  1  0  0  0  0
  6  7  2  0  0  0  0
  6  8  1  0  0  0  0
  8  9  1  0  0  0  0
  9 10  1  0  0  0  0
 10 11  1  0  0  0  0
 11 12  1  0  0  0  0
 12 13  1  0  0  0  0
 13 14  1  0  0  0  0
  5 15  1  0  0  0  0
 15 16  2  0  0  0  0
  2 16  1  0  0  0  0
  1 17  1  0  0  0  0
  3 18  1  0  0  0  0
  4 19  1  0  0  0  0
  9 20  1  0  0  0  0
  9 21  1  0  0  0  0
 10 22  1  0  0  0  0
 10 23  1  0  0  0  0
 11 24  1  0  0  0  0
 11 25  1  0  0  0  0
 12 26  1  0  0  0  0
 12 27  1  0  0  0  0
 13 28  1  0  0  0  0
 13 29  1  0  0  0  0
 14 30  1  0  0  0  0
 14 31  1  0  0  0  0
 14 32  1  0  0  0  0
 15 33  1  0  0  0  0
 16 34  1  0  0  0  0
M  END
$$$$
