C8H16O2
APtclcactv12151716373D 0   0.00000     0.00000
 
 26 25  0  0  0  0  0  0  0  0999 V2000
   -3.2651    0.0306   -0.0012 C   0  0  0  0  0  0  0  0  0  0  0  0
   -4.5074   -0.8224    0.0001 C   0  0  0  0  0  0  0  0  0  0  0  0
   -3.3594    1.2352    0.0017 O   0  0  0  0  0  0  0  0  0  0  0  0
   -2.0538   -0.5477    0.0000 O   0  0  0  0  0  0  0  0  0  0  0  0
   -0.9015    0.3357   -0.0013 C   0  0  0  0  0  0  0  0  0  0  0  0
    0.3810   -0.4987    0.0004 C   0  0  0  0  0  0  0  0  0  0  0  0
    1.5952    0.4322   -0.0010 C   0  0  0  0  0  0  0  0  0  0  0  0
    2.8776   -0.4023    0.0007 C   0  0  0  0  0  0  0  0  0  0  0  0
    4.0918    0.5286   -0.0008 C   0  0  0  0  0  0  0  0  0  0  0  0
    5.3742   -0.3058    0.0009 C   0  0  0  0  0  0  0  0  0  0  0  0
   -4.8095   -1.0258   -1.0273 H   0  0  0  0  0  0  0  0  0  0  0  0
   -4.3018   -1.7629    0.5113 H   0  0  0  0  0  0  0  0  0  0  0  0
   -5.3094   -0.2956    0.5171 H   0  0  0  0  0  0  0  0  0  0  0  0
   -0.9256    0.9630   -0.8924 H   0  0  0  0  0  0  0  0  0  0  0  0
   -0.9259    0.9661    0.8876 H   0  0  0  0  0  0  0  0  0  0  0  0
    0.4051   -1.1260    0.8915 H   0  0  0  0  0  0  0  0  0  0  0  0
    0.4054   -1.1291   -0.8885 H   0  0  0  0  0  0  0  0  0  0  0  0
    1.5710    1.0595   -0.8921 H   0  0  0  0  0  0  0  0  0  0  0  0
    1.5707    1.0626    0.8878 H   0  0  0  0  0  0  0  0  0  0  0  0
    2.9017   -1.0296    0.8917 H   0  0  0  0  0  0  0  0  0  0  0  0
    2.9020   -1.0327   -0.8882 H   0  0  0  0  0  0  0  0  0  0  0  0
    4.0676    1.1559   -0.8918 H   0  0  0  0  0  0  0  0  0  0  0  0
    4.0673    1.1590    0.8881 H   0  0  0  0  0  0  0  0  0  0  0  0
    5.3983   -0.9331    0.8920 H   0  0  0  0  0  0  0  0  0  0  0  0
    5.3986   -0.9362   -0.8879 H   0  0  0  0  0  0  0  0  0  0  0  0
    6.2392    0.3574   -0.0001 H   0  0  0  0  0  0  0  0  0  0  0  0
  1  2  1  0  0  0  0
  1  3  2  0  0  0  0
  1  4  1  0  0  0  0
  4  5  1  0  0  0  0
  5  6  1  0  0  0  0
  6  7  1  0  0  0  0
  7  8  1  0  0  0  0
  8  9  1  0  0  0  0
  9 10  1  0  0  0  0
  2 11  1  0  0  0  0
  2 12  1  0  0  0  0
  2 13  1  0  0  0  0
  5 14  1  0  0  0  0
  5 15  1  0  0  0  0
  6 16  1  0  0  0  0
  6 17  1  0  0  0  0
  7 18  1  0  0  0  0
  7 19  1  0  0  0  0
  8 20  1  0  0  0  0
  8 21  1  0  0  0  0
  9 22  1  0  0  0  0
  9 23  1  0  0  0  0
 10 24  1  0  0  0  0
 10 25  1  0  0  0  0
 10 26  1  0  0  0  0
M  END
$$$$
