C12H17NO2
APtclcactv12111705013D 0   0.00000     0.00000
 
 32 32  0  0  0  0  0  0  0  0999 V2000
   -1.3705    0.7994   -0.0033 C   0  0  0  0  0  0  0  0  0  0  0  0
   -2.7015    0.1587   -0.0015 C   0  0  0  0  0  0  0  0  0  0  0  0
   -2.8198   -1.2320   -0.0029 C   0  0  0  0  0  0  0  0  0  0  0  0
   -4.0064   -1.8030   -0.0018 N   0  0  0  0  0  0  0  0  0  0  0  0
   -5.1202   -1.0958    0.0012 C   0  0  0  0  0  0  0  0  0  0  0  0
   -5.0881    0.2875    0.0028 C   0  0  0  0  0  0  0  0  0  0  0  0
   -3.8664    0.9365    0.0076 C   0  0  0  0  0  0  0  0  0  0  0  0
   -1.2795    2.0106   -0.0019 O   0  0  0  0  0  0  0  0  0  0  0  0
   -0.2576    0.0403   -0.0008 O   0  0  0  0  0  0  0  0  0  0  0  0
    1.0160    0.7376   -0.0028 C   0  0  0  0  0  0  0  0  0  0  0  0
    2.1561   -0.2827    0.0006 C   0  0  0  0  0  0  0  0  0  0  0  0
    3.4981    0.4521   -0.0015 C   0  0  0  0  0  0  0  0  0  0  0  0
    4.6382   -0.5682    0.0018 C   0  0  0  0  0  0  0  0  0  0  0  0
    5.9802    0.1666   -0.0003 C   0  0  0  0  0  0  0  0  0  0  0  0
    7.1203   -0.8537    0.0030 C   0  0  0  0  0  0  0  0  0  0  0  0
   -1.9306   -1.8450   -0.0054 H   0  0  0  0  0  0  0  0  0  0  0  0
   -6.0726   -1.6050    0.0020 H   0  0  0  0  0  0  0  0  0  0  0  0
   -6.0073    0.8545    0.0049 H   0  0  0  0  0  0  0  0  0  0  0  0
   -3.8122    2.0152    0.0090 H   0  0  0  0  0  0  0  0  0  0  0  0
    1.0880    1.3600   -0.8947 H   0  0  0  0  0  0  0  0  0  0  0  0
    1.0878    1.3656    0.8853 H   0  0  0  0  0  0  0  0  0  0  0  0
    2.0840   -0.9051    0.8925 H   0  0  0  0  0  0  0  0  0  0  0  0
    2.0843   -0.9106   -0.8875 H   0  0  0  0  0  0  0  0  0  0  0  0
    3.5701    1.0745   -0.8934 H   0  0  0  0  0  0  0  0  0  0  0  0
    3.5699    1.0800    0.8865 H   0  0  0  0  0  0  0  0  0  0  0  0
    4.5661   -1.1906    0.8937 H   0  0  0  0  0  0  0  0  0  0  0  0
    4.5664   -1.1962   -0.8863 H   0  0  0  0  0  0  0  0  0  0  0  0
    6.0522    0.7890   -0.8922 H   0  0  0  0  0  0  0  0  0  0  0  0
    6.0520    0.7945    0.8877 H   0  0  0  0  0  0  0  0  0  0  0  0
    8.0764   -0.3302    0.0015 H   0  0  0  0  0  0  0  0  0  0  0  0
    7.0483   -1.4762    0.8949 H   0  0  0  0  0  0  0  0  0  0  0  0
    7.0485   -1.4817   -0.8850 H   0  0  0  0  0  0  0  0  0  0  0  0
  1  2  1  0  0  0  0
  2  3  2  0  0  0  0
  3  4  1  0  0  0  0
  4  5  2  0  0  0  0
  5  6  1  0  0  0  0
  6  7  2  0  0  0  0
  2  7  1  0  0  0  0
  1  8  2  0  0  0  0
  1  9  1  0  0  0  0
  9 10  1  0  0  0  0
 10 11  1  0  0  0  0
 11 12  1  0  0  0  0
 12 13  1  0  0  0  0
 13 14  1  0  0  0  0
 14 15  1  0  0  0  0
  3 16  1  0  0  0  0
  5 17  1  0  0  0  0
  6 18  1  0  0  0  0
  7 19  1  0  0  0  0
 10 20  1  0  0  0  0
 10 21  1  0  0  0  0
 11 22  1  0  0  0  0
 11 23  1  0  0  0  0
 12 24  1  0  0  0  0
 12 25  1  0  0  0  0
 13 26  1  0  0  0  0
 13 27  1  0  0  0  0
 14 28  1  0  0  0  0
 14 29  1  0  0  0  0
 15 30  1  0  0  0  0
 15 31  1  0  0  0  0
 15 32  1  0  0  0  0
M  END
$$$$
