C8H8O4
APtclcactv12151716293D 0   0.00000     0.00000
 
 20 20  0  0  0  0  0  0  0  0999 V2000
    0.9166   -0.9767    0.4913 C   0  0  0  0  0  0  0  0  0  0  0  0
    1.6054    1.5703   -0.3557 C   0  0  0  0  0  0  0  0  0  0  0  0
    2.5433    0.5570   -0.3876 C   0  0  0  0  0  0  0  0  0  0  0  0
   -1.4167   -0.2430    1.0196 C   0  0  0  0  0  0  0  0  0  0  0  0
   -0.6184    2.8044    0.9637 H   0  0  0  0  0  0  0  0  0  0  0  0
    3.1405   -2.2108   -0.8274 H   0  0  0  0  0  0  0  0  0  0  0  0
   -0.0215    0.0371    0.5237 C   0  0  0  0  0  0  0  0  0  0  0  0
    0.3210    1.3124    0.1003 C   0  0  0  0  0  0  0  0  0  0  0  0
    2.2006   -0.7189    0.0355 C   0  0  0  0  0  0  0  0  0  0  0  0
   -1.8674   -0.5377   -1.2743 O   0  0  0  0  0  0  0  0  0  0  0  0
   -0.6022    2.3104    0.1326 O   0  0  0  0  0  0  0  0  0  0  0  0
    3.1240   -1.7167    0.0036 O   0  0  0  0  0  0  0  0  0  0  0  0
   -3.6111   -0.8289    0.0516 O   0  0  0  0  0  0  0  0  0  0  0  0
   -2.3146   -0.5473   -0.1519 C   0  0  0  0  0  0  0  0  0  0  0  0
   -4.1474   -1.0175   -0.7306 H   0  0  0  0  0  0  0  0  0  0  0  0
    0.6511   -1.9689    0.8253 H   0  0  0  0  0  0  0  0  0  0  0  0
   -1.3975   -1.0986    1.6946 H   0  0  0  0  0  0  0  0  0  0  0  0
   -1.7957    0.6302    1.5506 H   0  0  0  0  0  0  0  0  0  0  0  0
    1.8724    2.5637   -0.6848 H   0  0  0  0  0  0  0  0  0  0  0  0
    3.5432    0.7577   -0.7430 H   0  0  0  0  0  0  0  0  0  0  0  0
  7  8  2  0  0  0  0
  1  7  1  0  0  0  0
  4  7  1  0  0  0  0
  2  8  1  0  0  0  0
  8 11  1  0  0  0  0
  1  9  2  0  0  0  0
  4 14  1  0  0  0  0
  2  3  2  0  0  0  0
  9 12  1  0  0  0  0
 13 14  1  0  0  0  0
 10 14  2  0  0  0  0
  3  9  1  0  0  0  0
  1 16  1  0  0  0  0
  4 17  1  0  0  0  0
  4 18  1  0  0  0  0
  2 19  1  0  0  0  0
  5 11  1  0  0  0  0
  3 20  1  0  0  0  0
  6 12  1  0  0  0  0
 13 15  1  0  0  0  0
M  END
$$$$
