C8H15N5O
APtclcactv12151716343D 0   0.00000     0.00000
 
 29 29  0  0  0  0  0  0  0  0999 V2000
    3.9178    0.1869   -0.0521 C   0  0  0  0  0  0  0  0  0  0  0  0
   -4.4166    1.2163    0.7344 C   0  0  0  0  0  0  0  0  0  0  0  0
   -3.7637   -0.1235   -1.2708 C   0  0  0  0  0  0  0  0  0  0  0  0
    5.1027    1.1518   -0.1292 C   0  0  0  0  0  0  0  0  0  0  0  0
   -2.0643    1.9938    0.0247 H   0  0  0  0  0  0  0  0  0  0  0  0
    0.3124    1.9710   -0.0388 H   0  0  0  0  0  0  0  0  0  0  0  0
    2.6887    1.9176   -0.1002 H   0  0  0  0  0  0  0  0  0  0  0  0
    0.2408   -2.8871    0.1995 O   0  0  0  0  0  0  0  0  0  0  0  0
   -0.8915    0.3324    0.0700 C   0  0  0  0  0  0  0  0  0  0  0  0
    1.4673    0.2946    0.0088 C   0  0  0  0  0  0  0  0  0  0  0  0
    0.2587   -1.6676    0.1375 C   0  0  0  0  0  0  0  0  0  0  0  0
   -3.3440    0.3033    0.1373 C   0  0  0  0  0  0  0  0  0  0  0  0
   -2.0708    1.0249    0.0697 N   0  0  0  0  0  0  0  0  0  0  0  0
    2.6666    0.9489   -0.0542 N   0  0  0  0  0  0  0  0  0  0  0  0
    0.2981    1.0022    0.0070 N   0  0  0  0  0  0  0  0  0  0  0  0
   -0.8965   -0.9853    0.1365 N   0  0  0  0  0  0  0  0  0  0  0  0
    1.4334   -1.0228    0.0710 N   0  0  0  0  0  0  0  0  0  0  0  0
   -3.2281   -0.5801    0.7653 H   0  0  0  0  0  0  0  0  0  0  0  0
   -4.5326    2.0997    0.1064 H   0  0  0  0  0  0  0  0  0  0  0  0
   -5.3639    0.6794    0.7847 H   0  0  0  0  0  0  0  0  0  0  0  0
   -4.1176    1.5204    1.7375 H   0  0  0  0  0  0  0  0  0  0  0  0
   -2.9995   -0.7740   -1.6962 H   0  0  0  0  0  0  0  0  0  0  0  0
   -4.7109   -0.6604   -1.2205 H   0  0  0  0  0  0  0  0  0  0  0  0
   -3.8796    0.7598   -1.8988 H   0  0  0  0  0  0  0  0  0  0  0  0
    3.9373   -0.4819   -0.9125 H   0  0  0  0  0  0  0  0  0  0  0  0
    3.9851   -0.3986    0.8649 H   0  0  0  0  0  0  0  0  0  0  0  0
    5.0354    1.7373   -1.0461 H   0  0  0  0  0  0  0  0  0  0  0  0
    5.0832    1.8206    0.7313 H   0  0  0  0  0  0  0  0  0  0  0  0
    6.0336    0.5848   -0.1276 H   0  0  0  0  0  0  0  0  0  0  0  0
  8 11  2  0  0  0  0
 12 13  1  0  0  0  0
  9 13  1  0  0  0  0
  5 13  1  0  0  0  0
  9 15  1  0  0  0  0
 10 15  1  0  0  0  0
  6 15  1  0  0  0  0
 10 14  1  0  0  0  0
  1 14  1  0  0  0  0
  7 14  1  0  0  0  0
  9 16  2  0  0  0  0
 11 16  1  0  0  0  0
 10 17  2  0  0  0  0
 11 17  1  0  0  0  0
  2 12  1  0  0  0  0
  3 12  1  0  0  0  0
 12 18  1  0  0  0  0
  2 19  1  0  0  0  0
  2 20  1  0  0  0  0
  2 21  1  0  0  0  0
  3 22  1  0  0  0  0
  3 23  1  0  0  0  0
  3 24  1  0  0  0  0
  1  4  1  0  0  0  0
  1 25  1  0  0  0  0
  1 26  1  0  0  0  0
  4 27  1  0  0  0  0
  4 28  1  0  0  0  0
  4 29  1  0  0  0  0
M  END
$$$$
