C7H8ClN3O4S2
APtclcactv12151716173D 0   0.00000     0.00000
 
 25 26  0  0  0  0  0  0  0  0999 V2000
   -0.0528   -0.8056    0.0547 C   0  0  0  0  0  0  0  0  0  0  0  0
    0.0271    1.9610    0.0381 C   0  0  0  0  0  0  0  0  0  0  0  0
   -2.3147    2.9768    0.4133 H   0  0  0  0  0  0  0  0  0  0  0  0
   -4.6913    0.1056    0.8607 H   0  0  0  0  0  0  0  0  0  0  0  0
    3.0367   -0.1769   -2.0194 H   0  0  0  0  0  0  0  0  0  0  0  0
    4.2921   -1.1921   -1.5549 H   0  0  0  0  0  0  0  0  0  0  0  0
    1.1644   -0.1491    0.0528 C   0  0  0  0  0  0  0  0  0  0  0  0
    1.2007    1.2346    0.0407 C   0  0  0  0  0  0  0  0  0  0  0  0
   -2.9779   -1.3667   -1.3264 O   0  0  0  0  0  0  0  0  0  0  0  0
   -2.7999   -1.7952    1.1343 O   0  0  0  0  0  0  0  0  0  0  0  0
    3.4764   -0.5037    1.0857 O   0  0  0  0  0  0  0  0  0  0  0  0
    2.2937   -2.4431    0.0431 O   0  0  0  0  0  0  0  0  0  0  0  0
   -3.6689    1.5629   -0.3530 C   0  0  0  0  0  0  0  0  0  0  0  0
   -1.2273   -0.0825    0.0447 C   0  0  0  0  0  0  0  0  0  0  0  0
   -1.2031    1.3057    0.0479 C   0  0  0  0  0  0  0  0  0  0  0  0
    2.7282    2.0595    0.0280 Cl  0  0  0  0  0  0  0  0  0  0  0  0
    3.4381   -0.7722   -1.3672 N   0  0  0  0  0  0  0  0  0  0  0  0
    2.6655   -1.0718    0.0665 S   0  0  0  0  0  0  0  0  0  0  0  0
   -2.3687    2.0664    0.0830 N   0  0  0  0  0  0  0  0  0  0  0  0
   -3.9159    0.2610    0.2990 N   0  0  0  0  0  0  0  0  0  0  0  0
   -2.7801   -0.9263    0.0101 S   0  0  0  0  0  0  0  0  0  0  0  0
   -0.0837   -1.8851    0.0594 H   0  0  0  0  0  0  0  0  0  0  0  0
    0.0621    3.0404    0.0285 H   0  0  0  0  0  0  0  0  0  0  0  0
   -4.4489    2.2686   -0.0671 H   0  0  0  0  0  0  0  0  0  0  0  0
   -3.6673    1.4351   -1.4355 H   0  0  0  0  0  0  0  0  0  0  0  0
 14 15  2  0  0  0  0
  1 14  1  0  0  0  0
 14 21  1  0  0  0  0
  2 15  1  0  0  0  0
 15 19  1  0  0  0  0
  1  7  2  0  0  0  0
 20 21  1  0  0  0  0
  9 21  2  0  0  0  0
 10 21  2  0  0  0  0
  2  8  2  0  0  0  0
 13 19  1  0  0  0  0
  7 18  1  0  0  0  0
  8 16  1  0  0  0  0
 17 18  1  0  0  0  0
 11 18  2  0  0  0  0
 12 18  2  0  0  0  0
  7  8  1  0  0  0  0
 13 20  1  0  0  0  0
  1 22  1  0  0  0  0
  2 23  1  0  0  0  0
  3 19  1  0  0  0  0
  4 20  1  0  0  0  0
 13 24  1  0  0  0  0
 13 25  1  0  0  0  0
  5 17  1  0  0  0  0
  6 17  1  0  0  0  0
M  END
$$$$
