C17H23NO3
APtclcactv12211717143D 0   0.00000     0.00000
 
 44 46  0  0  1  0  0  0  0  0999 V2000
    1.5421   -1.4317   -0.4326 C   0  0  1  0  0  0  0  0  0  0  0  0
   -1.5736    0.7190   -0.5359 C   0  0  2  0  0  0  0  0  0  0  0  0
   -3.9727    0.3485   -1.1460 C   0  0  0  0  0  0  0  0  0  0  0  0
   -3.2552   -0.2087    1.0693 C   0  0  0  0  0  0  0  0  0  0  0  0
   -5.2559   -0.0596   -0.8330 C   0  0  0  0  0  0  0  0  0  0  0  0
   -4.5384   -0.6168    1.3822 C   0  0  0  0  0  0  0  0  0  0  0  0
   -5.5387   -0.5420    0.4311 C   0  0  0  0  0  0  0  0  0  0  0  0
   -1.1596    1.8596    0.3961 C   0  0  0  0  0  0  0  0  0  0  0  0
    5.2147    0.5308    0.6900 C   0  0  0  0  0  0  0  0  0  0  0  0
    0.4448    3.0860    0.5470 H   0  0  0  0  0  0  0  0  0  0  0  0
   -2.9725    0.2741   -0.1948 C   0  0  0  0  0  0  0  0  0  0  0  0
   -1.0390   -1.5137   -0.0061 O   0  0  0  0  0  0  0  0  0  0  0  0
    0.1188    2.3592   -0.0013 O   0  0  0  0  0  0  0  0  0  0  0  0
   -0.6232   -0.4381   -0.3667 C   0  0  0  0  0  0  0  0  0  0  0  0
    0.6854   -0.2739   -0.6166 O   0  0  0  0  0  0  0  0  0  0  0  0
    2.7273   -1.3471   -1.3986 C   0  0  0  0  0  0  0  0  0  0  0  0
    2.0528   -1.4631    1.0108 C   0  0  0  0  0  0  0  0  0  0  0  0
    2.6724    1.0700   -0.7976 C   0  0  0  0  0  0  0  0  0  0  0  0
    2.2570    0.9986    0.6866 C   0  0  0  0  0  0  0  0  0  0  0  0
    3.6034   -0.1464   -1.0073 C   0  0  0  0  0  0  0  0  0  0  0  0
    2.9747   -0.2545    1.2388 C   0  0  0  0  0  0  0  0  0  0  0  0
    4.1524   -0.4240    0.3466 N   0  0  0  0  0  0  0  0  0  0  0  0
    4.3881    0.0452   -1.7392 H   0  0  0  0  0  0  0  0  0  0  0  0
    3.2617   -0.1487    2.2850 H   0  0  0  0  0  0  0  0  0  0  0  0
    0.9734   -2.3393   -0.6350 H   0  0  0  0  0  0  0  0  0  0  0  0
    3.3147   -2.2632   -1.3368 H   0  0  0  0  0  0  0  0  0  0  0  0
    2.3600   -1.2148   -2.4163 H   0  0  0  0  0  0  0  0  0  0  0  0
    1.2083   -1.4129    1.6980 H   0  0  0  0  0  0  0  0  0  0  0  0
    2.6099   -2.3845    1.1809 H   0  0  0  0  0  0  0  0  0  0  0  0
    1.7960    0.9922   -1.4410 H   0  0  0  0  0  0  0  0  0  0  0  0
    3.2093    1.9974   -0.9970 H   0  0  0  0  0  0  0  0  0  0  0  0
    2.5897    1.8908    1.2170 H   0  0  0  0  0  0  0  0  0  0  0  0
    1.1763    0.8857    0.7730 H   0  0  0  0  0  0  0  0  0  0  0  0
   -1.5443    1.0653   -1.5691 H   0  0  0  0  0  0  0  0  0  0  0  0
    4.8111    1.5433    0.6773 H   0  0  0  0  0  0  0  0  0  0  0  0
    5.5985    0.3051    1.6848 H   0  0  0  0  0  0  0  0  0  0  0  0
    6.0226    0.4526   -0.0376 H   0  0  0  0  0  0  0  0  0  0  0  0
   -1.8965    2.6608    0.3394 H   0  0  0  0  0  0  0  0  0  0  0  0
   -1.1030    1.4898    1.4199 H   0  0  0  0  0  0  0  0  0  0  0  0
   -3.7507    0.7212   -2.1350 H   0  0  0  0  0  0  0  0  0  0  0  0
   -2.4737   -0.2668    1.8125 H   0  0  0  0  0  0  0  0  0  0  0  0
   -6.0374   -0.0012   -1.5761 H   0  0  0  0  0  0  0  0  0  0  0  0
   -4.7592   -0.9944    2.3697 H   0  0  0  0  0  0  0  0  0  0  0  0
   -6.5414   -0.8601    0.6759 H   0  0  0  0  0  0  0  0  0  0  0  0
  1 15  1  0  0  0  0
 14 15  1  0  0  0  0
 12 14  2  0  0  0  0
  8 13  1  0  0  0  0
 20 22  1  0  0  0  0
 21 22  1  0  0  0  0
  9 22  1  0  0  0  0
 16 20  1  0  0  0  0
 18 20  1  0  0  0  0
 17 21  1  0  0  0  0
 19 21  1  0  0  0  0
  1 16  1  0  0  0  0
  1 17  1  0  0  0  0
 18 19  1  0  0  0  0
  2 14  1  0  0  0  0
  2 11  1  0  0  0  0
  2  8  1  0  0  0  0
  3 11  2  0  0  0  0
  4 11  1  0  0  0  0
  3  5  1  0  0  0  0
  4  6  2  0  0  0  0
  5  7  2  0  0  0  0
  6  7  1  0  0  0  0
 10 13  1  0  0  0  0
 20 23  1  0  0  0  0
 21 24  1  0  0  0  0
  1 25  1  0  0  0  0
 16 26  1  0  0  0  0
 16 27  1  0  0  0  0
 17 28  1  0  0  0  0
 17 29  1  0  0  0  0
 18 30  1  0  0  0  0
 18 31  1  0  0  0  0
 19 32  1  0  0  0  0
 19 33  1  0  0  0  0
  2 34  1  0  0  0  0
  9 35  1  0  0  0  0
  9 36  1  0  0  0  0
  9 37  1  0  0  0  0
  8 38  1  0  0  0  0
  8 39  1  0  0  0  0
  3 40  1  0  0  0  0
  4 41  1  0  0  0  0
  5 42  1  0  0  0  0
  6 43  1  0  0  0  0
  7 44  1  0  0  0  0
M  END
$$$$
