C13H19NO2
APtclcactv12091702533D 0   0.00000     0.00000
 
 35 35  0  0  0  0  0  0  0  0999 V2000
    0.0776    0.2953   -1.5954 C   0  0  0  0  0  0  0  0  0  0  0  0
   -0.1541    0.0424    0.7742 C   0  0  0  0  0  0  0  0  0  0  0  0
    1.3824   -0.1543   -1.5158 C   0  0  0  0  0  0  0  0  0  0  0  0
    1.1506   -0.4075    0.8537 C   0  0  0  0  0  0  0  0  0  0  0  0
    3.3411   -0.9963   -0.2046 C   0  0  0  0  0  0  0  0  0  0  0  0
   -2.2699    2.1470    0.3113 C   0  0  0  0  0  0  0  0  0  0  0  0
    3.9862    0.8295    1.3742 C   0  0  0  0  0  0  0  0  0  0  0  0
    5.7303   -0.2884   -0.0225 C   0  0  0  0  0  0  0  0  0  0  0  0
   -4.7322    0.8769   -0.3244 H   0  0  0  0  0  0  0  0  0  0  0  0
   -0.6907    0.3934   -0.4505 C   0  0  0  0  0  0  0  0  0  0  0  0
    1.9189   -0.5057   -0.2913 C   0  0  0  0  0  0  0  0  0  0  0  0
   -2.5974   -1.2398    0.3720 O   0  0  0  0  0  0  0  0  0  0  0  0
   -5.2498   -0.9706    0.4745 O   0  0  0  0  0  0  0  0  0  0  0  0
   -3.0446   -0.1846   -0.0247 C   0  0  0  0  0  0  0  0  0  0  0  0
   -6.1842   -0.7233    0.4481 H   0  0  0  0  0  0  0  0  0  0  0  0
   -2.1131    0.8835   -0.5372 C   0  0  0  0  0  0  0  0  0  0  0  0
    4.2785    0.1930    0.0139 C   0  0  0  0  0  0  0  0  0  0  0  0
   -4.3746    0.0329   -0.0071 N   0  0  0  0  0  0  0  0  0  0  0  0
   -2.3566    1.1104   -1.5752 H   0  0  0  0  0  0  0  0  0  0  0  0
   -0.3401    0.5741   -2.5516 H   0  0  0  0  0  0  0  0  0  0  0  0
   -0.7543    0.1191    1.6687 H   0  0  0  0  0  0  0  0  0  0  0  0
   -2.0264    1.9201    1.3492 H   0  0  0  0  0  0  0  0  0  0  0  0
   -1.5962    2.9195   -0.0595 H   0  0  0  0  0  0  0  0  0  0  0  0
   -3.2987    2.5015    0.2485 H   0  0  0  0  0  0  0  0  0  0  0  0
    1.9825   -0.2314   -2.4105 H   0  0  0  0  0  0  0  0  0  0  0  0
    1.5700   -0.6814    1.8105 H   0  0  0  0  0  0  0  0  0  0  0  0
    3.4355   -1.6914    0.6297 H   0  0  0  0  0  0  0  0  0  0  0  0
    3.6077   -1.5035   -1.1319 H   0  0  0  0  0  0  0  0  0  0  0  0
    4.1201    0.9299   -0.7735 H   0  0  0  0  0  0  0  0  0  0  0  0
    4.1445    0.0926    2.1617 H   0  0  0  0  0  0  0  0  0  0  0  0
    4.6540    1.6768    1.5299 H   0  0  0  0  0  0  0  0  0  0  0  0
    2.9519    1.1725    1.4002 H   0  0  0  0  0  0  0  0  0  0  0  0
    5.9385   -0.7418   -0.9916 H   0  0  0  0  0  0  0  0  0  0  0  0
    6.3981    0.5589    0.1331 H   0  0  0  0  0  0  0  0  0  0  0  0
    5.8886   -1.0252    0.7649 H   0  0  0  0  0  0  0  0  0  0  0  0
 10 16  1  0  0  0  0
  1 10  2  0  0  0  0
  2 10  1  0  0  0  0
 14 16  1  0  0  0  0
  6 16  1  0  0  0  0
  1  3  1  0  0  0  0
  2  4  2  0  0  0  0
 14 18  1  0  0  0  0
 12 14  2  0  0  0  0
  3 11  2  0  0  0  0
 13 18  1  0  0  0  0
  5 11  1  0  0  0  0
  5 17  1  0  0  0  0
  7 17  1  0  0  0  0
  8 17  1  0  0  0  0
  4 11  1  0  0  0  0
 16 19  1  0  0  0  0
  1 20  1  0  0  0  0
  2 21  1  0  0  0  0
  6 22  1  0  0  0  0
  6 23  1  0  0  0  0
  6 24  1  0  0  0  0
  3 25  1  0  0  0  0
  4 26  1  0  0  0  0
  9 18  1  0  0  0  0
 13 15  1  0  0  0  0
  5 27  1  0  0  0  0
  5 28  1  0  0  0  0
 17 29  1  0  0  0  0
  7 30  1  0  0  0  0
  7 31  1  0  0  0  0
  7 32  1  0  0  0  0
  8 33  1  0  0  0  0
  8 34  1  0  0  0  0
  8 35  1  0  0  0  0
M  END
$$$$
