C8H9N
APtclcactv12151716303D 0   0.00000     0.00000
 
 18 19  0  0  0  0  0  0  0  0999 V2000
   -1.5148    1.1521    0.0000 N   0  0  0  0  0  0  0  0  0  0  0  0
   -2.4627    0.0346    0.0003 C   0  0  0  0  0  0  0  0  0  0  0  0
   -1.5918   -1.2324    0.0001 C   0  0  0  0  0  0  0  0  0  0  0  0
   -0.1704   -0.7161   -0.0003 C   0  0  0  0  0  0  0  0  0  0  0  0
    1.0371   -1.3867   -0.0001 C   0  0  0  0  0  0  0  0  0  0  0  0
    2.2248   -0.6786    0.0000 C   0  0  0  0  0  0  0  0  0  0  0  0
    2.2014    0.7038   -0.0000 C   0  0  0  0  0  0  0  0  0  0  0  0
    0.9986    1.3777    0.0003 C   0  0  0  0  0  0  0  0  0  0  0  0
   -0.2050    0.6698   -0.0003 C   0  0  0  0  0  0  0  0  0  0  0  0
   -1.7616    2.0902   -0.0036 H   0  0  0  0  0  0  0  0  0  0  0  0
   -3.0842    0.0661    0.8952 H   0  0  0  0  0  0  0  0  0  0  0  0
   -3.0846    0.0661   -0.8943 H   0  0  0  0  0  0  0  0  0  0  0  0
   -1.7812   -1.8243    0.8956 H   0  0  0  0  0  0  0  0  0  0  0  0
   -1.7816   -1.8243   -0.8953 H   0  0  0  0  0  0  0  0  0  0  0  0
    1.0537   -2.4666    0.0002 H   0  0  0  0  0  0  0  0  0  0  0  0
    3.1683   -1.2041    0.0005 H   0  0  0  0  0  0  0  0  0  0  0  0
    3.1285    1.2576    0.0001 H   0  0  0  0  0  0  0  0  0  0  0  0
    0.9873    2.4576    0.0010 H   0  0  0  0  0  0  0  0  0  0  0  0
  1  2  1  0  0  0  0
  2  3  1  0  0  0  0
  3  4  1  0  0  0  0
  4  5  2  0  0  0  0
  5  6  1  0  0  0  0
  6  7  2  0  0  0  0
  7  8  1  0  0  0  0
  8  9  2  0  0  0  0
  1  9  1  0  0  0  0
  4  9  1  0  0  0  0
  1 10  1  0  0  0  0
  2 11  1  0  0  0  0
  2 12  1  0  0  0  0
  3 13  1  0  0  0  0
  3 14  1  0  0  0  0
  5 15  1  0  0  0  0
  6 16  1  0  0  0  0
  7 17  1  0  0  0  0
  8 18  1  0  0  0  0
M  END
$$$$
