C16H13I3N2O3
APtclcactv12211717103D 0   0.00000     0.00000
 
 37 38  0  0  0  0  0  0  0  0999 V2000
    1.8798   -1.4332   -0.0443 C   0  0  0  0  0  0  0  0  0  0  0  0
   -4.5090    0.7466   -0.6840 C   0  0  0  0  0  0  0  0  0  0  0  0
   -4.5698   -1.2562    0.6441 C   0  0  0  0  0  0  0  0  0  0  0  0
   -5.8740    0.6577   -0.8743 C   0  0  0  0  0  0  0  0  0  0  0  0
   -5.9347   -1.3393    0.4499 C   0  0  0  0  0  0  0  0  0  0  0  0
   -6.5862   -0.3835   -0.3078 C   0  0  0  0  0  0  0  0  0  0  0  0
   -1.9336    0.1622    1.6042 C   0  0  0  0  0  0  0  0  0  0  0  0
   -1.7959    1.6754    1.7837 C   0  0  0  0  0  0  0  0  0  0  0  0
    2.1434    2.9634   -0.7461 H   0  0  0  0  0  0  0  0  0  0  0  0
    3.5707    2.1510   -0.3917 H   0  0  0  0  0  0  0  0  0  0  0  0
   -0.1693   -0.2799   -0.5504 C   0  0  0  0  0  0  0  0  0  0  0  0
    0.5328    0.9232   -0.6464 C   0  0  0  0  0  0  0  0  0  0  0  0
    0.5146   -1.4597   -0.2475 C   0  0  0  0  0  0  0  0  0  0  0  0
    1.9037    0.9385   -0.4404 C   0  0  0  0  0  0  0  0  0  0  0  0
   -3.8516   -0.2115    0.0769 C   0  0  0  0  0  0  0  0  0  0  0  0
    2.5749   -0.2417   -0.1394 C   0  0  0  0  0  0  0  0  0  0  0  0
   -2.0755   -0.4881   -1.8842 O   0  0  0  0  0  0  0  0  0  0  0  0
   -0.9885    1.0636    3.9110 O   0  0  0  0  0  0  0  0  0  0  0  0
   -1.0387    3.2408    3.5363 O   0  0  0  0  0  0  0  0  0  0  0  0
   -1.6302   -0.3049   -0.7679 C   0  0  0  0  0  0  0  0  0  0  0  0
   -1.2448    1.9705    3.1549 C   0  0  0  0  0  0  0  0  0  0  0  0
   -0.6838    3.3803    4.4250 H   0  0  0  0  0  0  0  0  0  0  0  0
    2.6115    2.1402   -0.5358 N   0  0  0  0  0  0  0  0  0  0  0  0
   -0.4817    2.6989   -1.1007 I   0  0  0  0  0  0  0  0  0  0  0  0
   -0.5314   -3.2691   -0.1023 I   0  0  0  0  0  0  0  0  0  0  0  0
    4.6465   -0.2140    0.1718 I   0  0  0  0  0  0  0  0  0  0  0  0
   -2.4694   -0.1247    0.2712 N   0  0  0  0  0  0  0  0  0  0  0  0
    2.4061   -2.3457    0.1941 H   0  0  0  0  0  0  0  0  0  0  0  0
   -0.9556   -0.3069    1.7114 H   0  0  0  0  0  0  0  0  0  0  0  0
   -2.6112   -0.2333    2.3609 H   0  0  0  0  0  0  0  0  0  0  0  0
   -3.9527    1.5578   -1.1300 H   0  0  0  0  0  0  0  0  0  0  0  0
   -4.0616   -2.0026    1.2366 H   0  0  0  0  0  0  0  0  0  0  0  0
   -1.1184    2.0709    1.0270 H   0  0  0  0  0  0  0  0  0  0  0  0
   -2.7739    2.1445    1.6765 H   0  0  0  0  0  0  0  0  0  0  0  0
   -6.3858    1.4023   -1.4658 H   0  0  0  0  0  0  0  0  0  0  0  0
   -6.4937   -2.1515    0.8907 H   0  0  0  0  0  0  0  0  0  0  0  0
   -7.6537   -0.4504   -0.4575 H   0  0  0  0  0  0  0  0  0  0  0  0
 11 20  1  0  0  0  0
 11 12  1  0  0  0  0
 11 13  2  0  0  0  0
 20 27  1  0  0  0  0
 17 20  2  0  0  0  0
 12 14  2  0  0  0  0
 12 24  1  0  0  0  0
  1 13  1  0  0  0  0
 13 25  1  0  0  0  0
 15 27  1  0  0  0  0
  7 27  1  0  0  0  0
 14 16  1  0  0  0  0
 14 23  1  0  0  0  0
  2 15  1  0  0  0  0
  3 15  2  0  0  0  0
  7  8  1  0  0  0  0
 16 26  1  0  0  0  0
  2  4  2  0  0  0  0
  3  5  1  0  0  0  0
  8 21  1  0  0  0  0
  4  6  1  0  0  0  0
 19 21  1  0  0  0  0
 18 21  2  0  0  0  0
  1 16  2  0  0  0  0
  5  6  2  0  0  0  0
  1 28  1  0  0  0  0
  7 29  1  0  0  0  0
  7 30  1  0  0  0  0
  9 23  1  0  0  0  0
 10 23  1  0  0  0  0
  2 31  1  0  0  0  0
  3 32  1  0  0  0  0
  8 33  1  0  0  0  0
  8 34  1  0  0  0  0
  4 35  1  0  0  0  0
  5 36  1  0  0  0  0
  6 37  1  0  0  0  0
 19 22  1  0  0  0  0
M  END
$$$$
