C12H13I3N2O3
APtclcactv12111704583D 0   0.00000     0.00000
 
 33 33  0  0  0  0  0  0  0  0999 V2000
    1.2951   -1.4472    0.0820 C   0  0  0  0  0  0  0  0  0  0  0  0
   -2.6202    0.8873   -0.5721 C   0  0  0  0  0  0  0  0  0  0  0  0
   -3.6930    0.8734    2.0532 C   0  0  0  0  0  0  0  0  0  0  0  0
   -4.1606   -1.0221   -0.0992 C   0  0  0  0  0  0  0  0  0  0  0  0
    2.5654    2.8112   -0.2550 H   0  0  0  0  0  0  0  0  0  0  0  0
    3.7536    1.6365   -0.4303 H   0  0  0  0  0  0  0  0  0  0  0  0
   -0.4065    0.2282    0.3342 C   0  0  0  0  0  0  0  0  0  0  0  0
    0.5423    1.2227    0.1411 C   0  0  0  0  0  0  0  0  0  0  0  0
   -0.0264   -1.1078    0.3042 C   0  0  0  0  0  0  0  0  0  0  0  0
    1.8685    0.8789   -0.0808 C   0  0  0  0  0  0  0  0  0  0  0  0
    2.2422   -0.4596   -0.1105 C   0  0  0  0  0  0  0  0  0  0  0  0
   -1.4842    0.4329    2.7582 O   0  0  0  0  0  0  0  0  0  0  0  0
   -4.0453    1.0358   -2.8024 O   0  0  0  0  0  0  0  0  0  0  0  0
   -4.5948   -1.0886   -3.0637 O   0  0  0  0  0  0  0  0  0  0  0  0
   -2.2282    0.6099    1.8168 C   0  0  0  0  0  0  0  0  0  0  0  0
   -3.9823   -0.0996   -2.3941 C   0  0  0  0  0  0  0  0  0  0  0  0
   -5.0739   -0.8437   -3.8672 H   0  0  0  0  0  0  0  0  0  0  0  0
   -3.2161   -0.4054   -1.1329 C   0  0  0  0  0  0  0  0  0  0  0  0
    2.8269    1.8774   -0.2752 N   0  0  0  0  0  0  0  0  0  0  0  0
   -0.0263    3.2386    0.1848 I   0  0  0  0  0  0  0  0  0  0  0  0
   -1.4577   -2.6096    0.5955 I   0  0  0  0  0  0  0  0  0  0  0  0
    4.2435   -0.9801   -0.4469 I   0  0  0  0  0  0  0  0  0  0  0  0
   -1.7448    0.5710    0.5593 N   0  0  0  0  0  0  0  0  0  0  0  0
   -2.0429    1.3884   -1.3491 H   0  0  0  0  0  0  0  0  0  0  0  0
   -3.4243    1.5427   -0.2372 H   0  0  0  0  0  0  0  0  0  0  0  0
    1.5887   -2.4864    0.0633 H   0  0  0  0  0  0  0  0  0  0  0  0
   -2.4136   -1.1083   -1.3567 H   0  0  0  0  0  0  0  0  0  0  0  0
   -4.2215   -0.0748    2.1512 H   0  0  0  0  0  0  0  0  0  0  0  0
   -3.8148    1.4536    2.9679 H   0  0  0  0  0  0  0  0  0  0  0  0
   -4.1022    1.4321    1.2114 H   0  0  0  0  0  0  0  0  0  0  0  0
   -3.6064   -1.2433    0.8130 H   0  0  0  0  0  0  0  0  0  0  0  0
   -4.9631   -0.3193    0.1246 H   0  0  0  0  0  0  0  0  0  0  0  0
   -4.5851   -1.9431   -0.4988 H   0  0  0  0  0  0  0  0  0  0  0  0
  7 23  1  0  0  0  0
  7  8  1  0  0  0  0
  7  9  2  0  0  0  0
  2 23  1  0  0  0  0
 15 23  1  0  0  0  0
  8 10  2  0  0  0  0
  8 20  1  0  0  0  0
  1  9  1  0  0  0  0
  9 21  1  0  0  0  0
  2 18  1  0  0  0  0
  3 15  1  0  0  0  0
 12 15  2  0  0  0  0
 10 11  1  0  0  0  0
 10 19  1  0  0  0  0
 16 18  1  0  0  0  0
  4 18  1  0  0  0  0
 11 22  1  0  0  0  0
 14 16  1  0  0  0  0
 13 16  2  0  0  0  0
  1 11  2  0  0  0  0
  2 24  1  0  0  0  0
  2 25  1  0  0  0  0
  1 26  1  0  0  0  0
 18 27  1  0  0  0  0
  3 28  1  0  0  0  0
  3 29  1  0  0  0  0
  3 30  1  0  0  0  0
  5 19  1  0  0  0  0
  6 19  1  0  0  0  0
  4 31  1  0  0  0  0
  4 32  1  0  0  0  0
  4 33  1  0  0  0  0
 14 17  1  0  0  0  0
M  END
$$$$
