C4H5I
APtclcactv12211716363D 0   0.00000     0.00000
 
 10 10  0  0  0  0  0  0  0  0999 V2000
   -0.6298   -0.0186   -0.0000 I   0  0  0  0  0  0  0  0  0  0  0  0
   -1.7728    1.2548   -0.0000 H   0  0  0  0  0  0  0  0  0  0  0  0
    0.9921   -1.3660   -0.0000 C   0  0  0  0  0  0  0  0  0  0  0  0
    2.1177   -0.6917    0.0000 C   0  0  0  0  0  0  0  0  0  0  0  0
    2.0915    0.7531    0.0000 C   0  0  0  0  0  0  0  0  0  0  0  0
    0.9420    1.3859    0.0000 C   0  0  0  0  0  0  0  0  0  0  0  0
    0.9177   -2.4459    0.0003 H   0  0  0  0  0  0  0  0  0  0  0  0
    3.0818   -1.2282   -0.0003 H   0  0  0  0  0  0  0  0  0  0  0  0
    3.0354    1.3243   -0.0003 H   0  0  0  0  0  0  0  0  0  0  0  0
    0.8293    2.4628    0.0000 H   0  0  0  0  0  0  0  0  0  0  0  0
  1  2  1  0  0  0  0
  1  3  1  0  0  0  0
  3  4  2  0  0  0  0
  4  5  1  0  0  0  0
  5  6  2  0  0  0  0
  1  6  1  0  0  0  0
  3  7  1  0  0  0  0
  4  8  1  0  0  0  0
  5  9  1  0  0  0  0
  6 10  1  0  0  0  0
M  END
$$$$
