C6H5I
APtclcactv12211716513D 0   0.00000     0.00000
 
 12 12  0  0  0  0  0  0  0  0999 V2000
   -1.3265    0.0000   -0.0001 I   0  0  0  0  0  0  0  0  0  0  0  0
    0.7685   -0.0000   -0.0006 C   0  0  0  0  0  0  0  0  0  0  0  0
    1.4601    1.1976    0.0005 C   0  0  0  0  0  0  0  0  0  0  0  0
    2.8423    1.1973    0.0007 C   0  0  0  0  0  0  0  0  0  0  0  0
    3.5334   -0.0000   -0.0008 C   0  0  0  0  0  0  0  0  0  0  0  0
    2.8423   -1.1973   -0.0020 C   0  0  0  0  0  0  0  0  0  0  0  0
    1.4601   -1.1976    0.0036 C   0  0  0  0  0  0  0  0  0  0  0  0
    0.9203    2.1330    0.0010 H   0  0  0  0  0  0  0  0  0  0  0  0
    3.3825    2.1325    0.0016 H   0  0  0  0  0  0  0  0  0  0  0  0
    4.6134   -0.0000   -0.0014 H   0  0  0  0  0  0  0  0  0  0  0  0
    3.3825   -2.1325   -0.0032 H   0  0  0  0  0  0  0  0  0  0  0  0
    0.9202   -2.1330    0.0031 H   0  0  0  0  0  0  0  0  0  0  0  0
  1  2  1  0  0  0  0
  2  3  2  0  0  0  0
  3  4  1  0  0  0  0
  4  5  2  0  0  0  0
  5  6  1  0  0  0  0
  6  7  2  0  0  0  0
  2  7  1  0  0  0  0
  3  8  1  0  0  0  0
  4  9  1  0  0  0  0
  5 10  1  0  0  0  0
  6 11  1  0  0  0  0
  7 12  1  0  0  0  0
M  END
$$$$
