CH3I
APtclcactv12101715313D 0   0.00000     0.00000
 
  5  4  0  0  0  0  0  0  0  0999 V2000
   -0.2367   -0.0000    0.0000 I   0  0  0  0  0  0  0  0  0  0  0  0
    1.9253   -0.0000   -0.0000 C   0  0  0  0  0  0  0  0  0  0  0  0
    2.2886    0.0000    1.0277 H   0  0  0  0  0  0  0  0  0  0  0  0
    2.2886   -0.8900   -0.5138 H   0  0  0  0  0  0  0  0  0  0  0  0
    2.2886    0.8900   -0.5138 H   0  0  0  0  0  0  0  0  0  0  0  0
  1  2  1  0  0  0  0
  2  3  1  0  0  0  0
  2  4  1  0  0  0  0
  2  5  1  0  0  0  0
M  END
$$$$
