C11H12I3NO2
APtclcactv12211717323D 0   0.00000     0.00000
 
 29 29  0  0  0  0  0  0  0  0999 V2000
    1.3688   -1.2990    0.1022 C   0  0  0  0  0  0  0  0  0  0  0  0
   -2.1220    0.0423    0.6383 C   0  0  0  0  0  0  0  0  0  0  0  0
   -2.6314   -1.0479   -1.5513 C   0  0  0  0  0  0  0  0  0  0  0  0
   -3.2450   -0.8347   -2.9365 C   0  0  0  0  0  0  0  0  0  0  0  0
    1.7537    3.1377    0.0008 H   0  0  0  0  0  0  0  0  0  0  0  0
    3.1573    2.2389   -0.2110 H   0  0  0  0  0  0  0  0  0  0  0  0
   -0.6343   -0.0165    0.4049 C   0  0  0  0  0  0  0  0  0  0  0  0
    0.0915    1.1528    0.2804 C   0  0  0  0  0  0  0  0  0  0  0  0
    0.0032   -1.2407    0.3160 C   0  0  0  0  0  0  0  0  0  0  0  0
    1.4628    1.0978    0.0657 C   0  0  0  0  0  0  0  0  0  0  0  0
    2.1002   -0.1337   -0.0231 C   0  0  0  0  0  0  0  0  0  0  0  0
   -4.8630   -0.1746    0.4488 O   0  0  0  0  0  0  0  0  0  0  0  0
   -5.0210    1.2309   -1.2491 O   0  0  0  0  0  0  0  0  0  0  0  0
   -4.3160    0.4068   -0.4582 C   0  0  0  0  0  0  0  0  0  0  0  0
   -5.9632    1.3271   -1.0541 H   0  0  0  0  0  0  0  0  0  0  0  0
   -2.8423    0.2067   -0.7015 C   0  0  0  0  0  0  0  0  0  0  0  0
    2.1998    2.2785   -0.0611 N   0  0  0  0  0  0  0  0  0  0  0  0
   -0.8754    3.0065    0.4146 I   0  0  0  0  0  0  0  0  0  0  0  0
   -1.1017   -3.0106    0.5047 I   0  0  0  0  0  0  0  0  0  0  0  0
    4.1682   -0.2233   -0.3462 I   0  0  0  0  0  0  0  0  0  0  0  0
   -2.4513   -0.8799    1.1171 H   0  0  0  0  0  0  0  0  0  0  0  0
   -2.3554    0.8898    1.2828 H   0  0  0  0  0  0  0  0  0  0  0  0
   -2.4398    1.0731   -1.2264 H   0  0  0  0  0  0  0  0  0  0  0  0
    1.8643   -2.2564    0.0378 H   0  0  0  0  0  0  0  0  0  0  0  0
   -3.1116   -1.8989   -1.0682 H   0  0  0  0  0  0  0  0  0  0  0  0
   -1.5637   -1.2427   -1.6529 H   0  0  0  0  0  0  0  0  0  0  0  0
   -4.3126   -0.6400   -2.8349 H   0  0  0  0  0  0  0  0  0  0  0  0
   -2.7648    0.0162   -3.4196 H   0  0  0  0  0  0  0  0  0  0  0  0
   -3.0947   -1.7286   -3.5420 H   0  0  0  0  0  0  0  0  0  0  0  0
  2  7  1  0  0  0  0
  7  8  1  0  0  0  0
  7  9  2  0  0  0  0
  2 16  1  0  0  0  0
  8 10  2  0  0  0  0
  8 18  1  0  0  0  0
  1  9  1  0  0  0  0
  9 19  1  0  0  0  0
 14 16  1  0  0  0  0
  3 16  1  0  0  0  0
 10 11  1  0  0  0  0
 10 17  1  0  0  0  0
 13 14  1  0  0  0  0
 12 14  2  0  0  0  0
  3  4  1  0  0  0  0
 11 20  1  0  0  0  0
  1 11  2  0  0  0  0
  2 21  1  0  0  0  0
  2 22  1  0  0  0  0
 16 23  1  0  0  0  0
  1 24  1  0  0  0  0
  3 25  1  0  0  0  0
  3 26  1  0  0  0  0
  5 17  1  0  0  0  0
  6 17  1  0  0  0  0
 13 15  1  0  0  0  0
  4 27  1  0  0  0  0
  4 28  1  0  0  0  0
  4 29  1  0  0  0  0
M  END
$$$$
