C12H13I3N2O2
APtclcactv12111704583D 0   0.00000     0.00000
 
 32 32  0  0  0  0  0  0  0  0999 V2000
    0.0853   -1.9186    0.0059 C   0  0  0  0  0  0  0  0  0  0  0  0
   -2.4746    0.8329    0.4080 C   0  0  0  0  0  0  0  0  0  0  0  0
   -3.1274    1.0887   -0.9520 C   0  0  0  0  0  0  0  0  0  0  0  0
    4.6712    2.3644   -0.7595 C   0  0  0  0  0  0  0  0  0  0  0  0
    5.0369    2.3386    1.7514 C   0  0  0  0  0  0  0  0  0  0  0  0
   -1.1601    0.1235    0.2087 C   0  0  0  0  0  0  0  0  0  0  0  0
   -0.0002    0.8546    0.0478 C   0  0  0  0  0  0  0  0  0  0  0  0
   -1.1182   -1.2595    0.1879 C   0  0  0  0  0  0  0  0  0  0  0  0
    1.2163    0.1961   -0.1361 C   0  0  0  0  0  0  0  0  0  0  0  0
    1.2518   -1.1993   -0.1561 C   0  0  0  0  0  0  0  0  0  0  0  0
   -4.8181    2.0712    0.3625 O   0  0  0  0  0  0  0  0  0  0  0  0
   -5.1948    2.1267   -1.8143 O   0  0  0  0  0  0  0  0  0  0  0  0
   -4.4419    1.7982   -0.7527 C   0  0  0  0  0  0  0  0  0  0  0  0
   -6.0299    2.5808   -1.6365 H   0  0  0  0  0  0  0  0  0  0  0  0
    3.0837    1.2476    0.7424 C   0  0  0  0  0  0  0  0  0  0  0  0
    2.3725    0.9170   -0.2971 N   0  0  0  0  0  0  0  0  0  0  0  0
    4.2368    1.9666    0.5819 N   0  0  0  0  0  0  0  0  0  0  0  0
   -0.0663    2.9483    0.0790 I   0  0  0  0  0  0  0  0  0  0  0  0
   -2.8838   -2.3603    0.4323 I   0  0  0  0  0  0  0  0  0  0  0  0
    3.0722   -2.1992   -0.4308 I   0  0  0  0  0  0  0  0  0  0  0  0
   -2.3016    1.7836    0.9125 H   0  0  0  0  0  0  0  0  0  0  0  0
   -3.1334    0.2133    1.0164 H   0  0  0  0  0  0  0  0  0  0  0  0
    0.1120   -2.9983   -0.0050 H   0  0  0  0  0  0  0  0  0  0  0  0
   -2.4686    1.7083   -1.5604 H   0  0  0  0  0  0  0  0  0  0  0  0
   -3.3004    0.1381   -1.4565 H   0  0  0  0  0  0  0  0  0  0  0  0
    2.7634    0.9544    1.7313 H   0  0  0  0  0  0  0  0  0  0  0  0
    4.2459    3.3374   -1.0055 H   0  0  0  0  0  0  0  0  0  0  0  0
    5.7591    2.4264   -0.7855 H   0  0  0  0  0  0  0  0  0  0  0  0
    4.3319    1.6255   -1.4853 H   0  0  0  0  0  0  0  0  0  0  0  0
    5.7684    1.5566    1.9548 H   0  0  0  0  0  0  0  0  0  0  0  0
    5.5541    3.2775    1.5540 H   0  0  0  0  0  0  0  0  0  0  0  0
    4.3833    2.4585    2.6155 H   0  0  0  0  0  0  0  0  0  0  0  0
  6  7  1  0  0  0  0
  6  8  2  0  0  0  0
  2  6  1  0  0  0  0
  7  9  2  0  0  0  0
  7 18  1  0  0  0  0
  1  8  1  0  0  0  0
  8 19  1  0  0  0  0
  2  3  1  0  0  0  0
  9 10  1  0  0  0  0
  9 16  1  0  0  0  0
  3 13  1  0  0  0  0
 10 20  1  0  0  0  0
 15 16  2  0  0  0  0
 12 13  1  0  0  0  0
 11 13  2  0  0  0  0
 15 17  1  0  0  0  0
  4 17  1  0  0  0  0
  5 17  1  0  0  0  0
  1 10  2  0  0  0  0
  2 21  1  0  0  0  0
  2 22  1  0  0  0  0
  1 23  1  0  0  0  0
  3 24  1  0  0  0  0
  3 25  1  0  0  0  0
 15 26  1  0  0  0  0
 12 14  1  0  0  0  0
  4 27  1  0  0  0  0
  4 28  1  0  0  0  0
  4 29  1  0  0  0  0
  5 30  1  0  0  0  0
  5 31  1  0  0  0  0
  5 32  1  0  0  0  0
M  END
$$$$
