C11H21N5O
APtclcactv12111704493D 0   0.00000     0.00000
 
 38 38  0  0  0  0  0  0  0  0999 V2000
    3.6810    0.4349   -0.1629 C   0  0  0  0  0  0  0  0  0  0  0  0
    2.8604   -1.9458    0.1490 C   0  0  0  0  0  0  0  0  0  0  0  0
    4.1283    0.9318    1.2133 C   0  0  0  0  0  0  0  0  0  0  0  0
    2.8952   -2.6092   -1.2293 C   0  0  0  0  0  0  0  0  0  0  0  0
   -1.8694    3.3827   -0.2475 C   0  0  0  0  0  0  0  0  0  0  0  0
   -3.9108   -0.7893   -1.1334 C   0  0  0  0  0  0  0  0  0  0  0  0
   -4.2861   -1.8990    1.0735 C   0  0  0  0  0  0  0  0  0  0  0  0
   -1.8368   -2.3359    0.4015 H   0  0  0  0  0  0  0  0  0  0  0  0
    1.2738   -0.0660    0.0017 C   0  0  0  0  0  0  0  0  0  0  0  0
   -0.9827   -0.4942    0.1512 C   0  0  0  0  0  0  0  0  0  0  0  0
   -0.2370    1.6654   -0.1262 C   0  0  0  0  0  0  0  0  0  0  0  0
   -0.4965    2.9864   -0.2620 O   0  0  0  0  0  0  0  0  0  0  0  0
   -3.4067   -0.9096    0.3062 C   0  0  0  0  0  0  0  0  0  0  0  0
    0.2732   -0.9290    0.1460 N   0  0  0  0  0  0  0  0  0  0  0  0
    1.0178    1.2319   -0.1316 N   0  0  0  0  0  0  0  0  0  0  0  0
   -1.2371    0.8038    0.0122 N   0  0  0  0  0  0  0  0  0  0  0  0
    2.5783   -0.5164   -0.0039 N   0  0  0  0  0  0  0  0  0  0  0  0
   -2.0225   -1.3892    0.3004 N   0  0  0  0  0  0  0  0  0  0  0  0
    3.3473    1.2809   -0.7638 H   0  0  0  0  0  0  0  0  0  0  0  0
    4.5165   -0.0572   -0.6607 H   0  0  0  0  0  0  0  0  0  0  0  0
    2.0805   -2.4073    0.7547 H   0  0  0  0  0  0  0  0  0  0  0  0
    3.8254   -2.0754    0.6390 H   0  0  0  0  0  0  0  0  0  0  0  0
    4.9488    1.6396    1.0950 H   0  0  0  0  0  0  0  0  0  0  0  0
    3.2928    1.4239    1.7111 H   0  0  0  0  0  0  0  0  0  0  0  0
    4.4621    0.0858    1.8142 H   0  0  0  0  0  0  0  0  0  0  0  0
    1.9302   -2.4796   -1.7193 H   0  0  0  0  0  0  0  0  0  0  0  0
    3.6751   -2.1477   -1.8350 H   0  0  0  0  0  0  0  0  0  0  0  0
    3.1051   -3.6727   -1.1155 H   0  0  0  0  0  0  0  0  0  0  0  0
   -3.4510    0.0664    0.7894 H   0  0  0  0  0  0  0  0  0  0  0  0
   -2.3971    2.8948   -1.0670 H   0  0  0  0  0  0  0  0  0  0  0  0
   -2.3216    3.0913    0.7005 H   0  0  0  0  0  0  0  0  0  0  0  0
   -1.9366    4.4643   -0.3648 H   0  0  0  0  0  0  0  0  0  0  0  0
   -4.9407   -0.4325   -1.1291 H   0  0  0  0  0  0  0  0  0  0  0  0
   -3.2843   -0.0845   -1.6800 H   0  0  0  0  0  0  0  0  0  0  0  0
   -3.8664   -1.7653   -1.6166 H   0  0  0  0  0  0  0  0  0  0  0  0
   -3.9270   -1.9847    2.0990 H   0  0  0  0  0  0  0  0  0  0  0  0
   -5.3160   -1.5422    1.0778 H   0  0  0  0  0  0  0  0  0  0  0  0
   -4.2417   -2.8750    0.5902 H   0  0  0  0  0  0  0  0  0  0  0  0
  9 17  1  0  0  0  0
  9 14  1  0  0  0  0
  9 15  2  0  0  0  0
  1 17  1  0  0  0  0
  2 17  1  0  0  0  0
 10 14  2  0  0  0  0
 11 15  1  0  0  0  0
  1  3  1  0  0  0  0
  2  4  1  0  0  0  0
 10 16  1  0  0  0  0
 10 18  1  0  0  0  0
 11 12  1  0  0  0  0
 13 18  1  0  0  0  0
  5 12  1  0  0  0  0
  6 13  1  0  0  0  0
  7 13  1  0  0  0  0
 11 16  2  0  0  0  0
  1 19  1  0  0  0  0
  1 20  1  0  0  0  0
  2 21  1  0  0  0  0
  2 22  1  0  0  0  0
  3 23  1  0  0  0  0
  3 24  1  0  0  0  0
  3 25  1  0  0  0  0
  4 26  1  0  0  0  0
  4 27  1  0  0  0  0
  4 28  1  0  0  0  0
  8 18  1  0  0  0  0
 13 29  1  0  0  0  0
  5 30  1  0  0  0  0
  5 31  1  0  0  0  0
  5 32  1  0  0  0  0
  6 33  1  0  0  0  0
  6 34  1  0  0  0  0
  6 35  1  0  0  0  0
  7 36  1  0  0  0  0
  7 37  1  0  0  0  0
  7 38  1  0  0  0  0
M  END
$$$$
