C7H14O2
APtclcactv12151716223D 0   0.00000     0.00000
 
 23 22  0  0  0  0  0  0  0  0999 V2000
   -2.4062    0.0336    0.0159 C   0  0  0  0  0  0  0  0  0  0  0  0
   -3.6878   -0.6811   -0.3274 C   0  0  0  0  0  0  0  0  0  0  0  0
   -2.4403    1.1636    0.4425 O   0  0  0  0  0  0  0  0  0  0  0  0
   -1.2272   -0.5870   -0.1470 O   0  0  0  0  0  0  0  0  0  0  0  0
   -0.0339    0.1621    0.2040 C   0  0  0  0  0  0  0  0  0  0  0  0
    1.2032   -0.7026   -0.0469 C   0  0  0  0  0  0  0  0  0  0  0  0
    2.4606    0.0868    0.3229 C   0  0  0  0  0  0  0  0  0  0  0  0
    3.6876   -0.8176    0.1910 C   0  0  0  0  0  0  0  0  0  0  0  0
    2.6062    1.2843   -0.6181 C   0  0  0  0  0  0  0  0  0  0  0  0
   -4.5347   -0.0251   -0.1263 H   0  0  0  0  0  0  0  0  0  0  0  0
   -3.6809   -0.9524   -1.3830 H   0  0  0  0  0  0  0  0  0  0  0  0
   -3.7746   -1.5827    0.2790 H   0  0  0  0  0  0  0  0  0  0  0  0
    0.0224    1.0629   -0.4071 H   0  0  0  0  0  0  0  0  0  0  0  0
   -0.0758    0.4395    1.2572 H   0  0  0  0  0  0  0  0  0  0  0  0
    1.1468   -1.6034    0.5642 H   0  0  0  0  0  0  0  0  0  0  0  0
    1.2450   -0.9800   -1.1002 H   0  0  0  0  0  0  0  0  0  0  0  0
    2.3785    0.4402    1.3508 H   0  0  0  0  0  0  0  0  0  0  0  0
    3.7697   -1.1711   -0.8368 H   0  0  0  0  0  0  0  0  0  0  0  0
    4.5834   -0.2553    0.4545 H   0  0  0  0  0  0  0  0  0  0  0  0
    3.5839   -1.6708    0.8614 H   0  0  0  0  0  0  0  0  0  0  0  0
    3.5020    1.8466   -0.3546 H   0  0  0  0  0  0  0  0  0  0  0  0
    2.6882    0.9309   -1.6459 H   0  0  0  0  0  0  0  0  0  0  0  0
    1.7320    1.9286   -0.5241 H   0  0  0  0  0  0  0  0  0  0  0  0
  1  2  1  0  0  0  0
  1  3  2  0  0  0  0
  1  4  1  0  0  0  0
  4  5  1  0  0  0  0
  5  6  1  0  0  0  0
  6  7  1  0  0  0  0
  7  8  1  0  0  0  0
  7  9  1  0  0  0  0
  2 10  1  0  0  0  0
  2 11  1  0  0  0  0
  2 12  1  0  0  0  0
  5 13  1  0  0  0  0
  5 14  1  0  0  0  0
  6 15  1  0  0  0  0
  6 16  1  0  0  0  0
  7 17  1  0  0  0  0
  8 18  1  0  0  0  0
  8 19  1  0  0  0  0
  8 20  1  0  0  0  0
  9 21  1  0  0  0  0
  9 22  1  0  0  0  0
  9 23  1  0  0  0  0
M  END
$$$$
