C8H16O2
APtclcactv12151716363D 0   0.00000     0.00000
 
 26 25  0  0  0  0  0  0  0  0999 V2000
   -1.0610    0.3330    0.1109 C   0  0  0  0  0  0  0  0  0  0  0  0
   -2.3184   -0.4766    0.2963 C   0  0  0  0  0  0  0  0  0  0  0  0
   -3.5211    0.4642    0.3934 C   0  0  0  0  0  0  0  0  0  0  0  0
   -2.5008   -1.4159   -0.8976 C   0  0  0  0  0  0  0  0  0  0  0  0
   -1.1206    1.5388    0.0616 O   0  0  0  0  0  0  0  0  0  0  0  0
    0.1259   -0.2851    0.0062 O   0  0  0  0  0  0  0  0  0  0  0  0
    1.2948    0.5579   -0.1707 C   0  0  0  0  0  0  0  0  0  0  0  0
    2.5452   -0.3182   -0.2696 C   0  0  0  0  0  0  0  0  0  0  0  0
    3.7595    0.5592   -0.5801 C   0  0  0  0  0  0  0  0  0  0  0  0
    2.7664   -1.0432    1.0595 C   0  0  0  0  0  0  0  0  0  0  0  0
   -2.2412   -1.0633    1.2117 H   0  0  0  0  0  0  0  0  0  0  0  0
   -3.5983    1.0508   -0.5220 H   0  0  0  0  0  0  0  0  0  0  0  0
   -4.4306   -0.1214    0.5275 H   0  0  0  0  0  0  0  0  0  0  0  0
   -3.3911    1.1334    1.2440 H   0  0  0  0  0  0  0  0  0  0  0  0
   -3.4103   -2.0015   -0.7635 H   0  0  0  0  0  0  0  0  0  0  0  0
   -2.5781   -0.8293   -1.8130 H   0  0  0  0  0  0  0  0  0  0  0  0
   -1.6440   -2.0862   -0.9668 H   0  0  0  0  0  0  0  0  0  0  0  0
    1.1869    1.1415   -1.0849 H   0  0  0  0  0  0  0  0  0  0  0  0
    1.3894    1.2313    0.6812 H   0  0  0  0  0  0  0  0  0  0  0  0
    2.4133   -1.0510   -1.0656 H   0  0  0  0  0  0  0  0  0  0  0  0
    3.8914    1.2920    0.2159 H   0  0  0  0  0  0  0  0  0  0  0  0
    4.6503   -0.0650   -0.6506 H   0  0  0  0  0  0  0  0  0  0  0  0
    3.6019    1.0757   -1.5270 H   0  0  0  0  0  0  0  0  0  0  0  0
    2.8983   -0.3104    1.8555 H   0  0  0  0  0  0  0  0  0  0  0  0
    1.9013   -1.6683    1.2807 H   0  0  0  0  0  0  0  0  0  0  0  0
    3.6572   -1.6674    0.9890 H   0  0  0  0  0  0  0  0  0  0  0  0
  1  2  1  0  0  0  0
  2  3  1  0  0  0  0
  2  4  1  0  0  0  0
  1  5  2  0  0  0  0
  1  6  1  0  0  0  0
  6  7  1  0  0  0  0
  7  8  1  0  0  0  0
  8  9  1  0  0  0  0
  8 10  1  0  0  0  0
  2 11  1  0  0  0  0
  3 12  1  0  0  0  0
  3 13  1  0  0  0  0
  3 14  1  0  0  0  0
  4 15  1  0  0  0  0
  4 16  1  0  0  0  0
  4 17  1  0  0  0  0
  7 18  1  0  0  0  0
  7 19  1  0  0  0  0
  8 20  1  0  0  0  0
  9 21  1  0  0  0  0
  9 22  1  0  0  0  0
  9 23  1  0  0  0  0
 10 24  1  0  0  0  0
 10 25  1  0  0  0  0
 10 26  1  0  0  0  0
M  END
$$$$
