C6H12O2
APtclcactv12211716583D 0   0.00000     0.00000
 
 20 19  0  0  0  0  0  0  0  0999 V2000
   -1.8122    0.0762    0.0020 C   0  0  0  0  0  0  0  0  0  0  0  0
   -3.0055   -0.8083   -0.2523 C   0  0  0  0  0  0  0  0  0  0  0  0
   -1.9682    1.1866    0.4521 O   0  0  0  0  0  0  0  0  0  0  0  0
   -0.5755   -0.3715   -0.2664 O   0  0  0  0  0  0  0  0  0  0  0  0
    0.5265    0.5347    0.0032 C   0  0  0  0  0  0  0  0  0  0  0  0
    1.8473   -0.1457   -0.3623 C   0  0  0  0  0  0  0  0  0  0  0  0
    2.9969    0.8501   -0.1966 C   0  0  0  0  0  0  0  0  0  0  0  0
    2.0750   -1.3456    0.5593 C   0  0  0  0  0  0  0  0  0  0  0  0
   -3.9162   -0.2793    0.0283 H   0  0  0  0  0  0  0  0  0  0  0  0
   -3.0470   -1.0671   -1.3104 H   0  0  0  0  0  0  0  0  0  0  0  0
   -2.9163   -1.7183    0.3411 H   0  0  0  0  0  0  0  0  0  0  0  0
    0.4069    1.4396   -0.5925 H   0  0  0  0  0  0  0  0  0  0  0  0
    0.5325    0.7946    1.0617 H   0  0  0  0  0  0  0  0  0  0  0  0
    1.8069   -0.4851   -1.3974 H   0  0  0  0  0  0  0  0  0  0  0  0
    3.0373    1.1895    0.8384 H   0  0  0  0  0  0  0  0  0  0  0  0
    3.9379    0.3654   -0.4570 H   0  0  0  0  0  0  0  0  0  0  0  0
    2.8347    1.7049   -0.8532 H   0  0  0  0  0  0  0  0  0  0  0  0
    3.0160   -1.8303    0.2989 H   0  0  0  0  0  0  0  0  0  0  0  0
    2.1154   -1.0062    1.5943 H   0  0  0  0  0  0  0  0  0  0  0  0
    1.2560   -2.0550    0.4412 H   0  0  0  0  0  0  0  0  0  0  0  0
  1  2  1  0  0  0  0
  1  3  2  0  0  0  0
  1  4  1  0  0  0  0
  4  5  1  0  0  0  0
  5  6  1  0  0  0  0
  6  7  1  0  0  0  0
  6  8  1  0  0  0  0
  2  9  1  0  0  0  0
  2 10  1  0  0  0  0
  2 11  1  0  0  0  0
  5 12  1  0  0  0  0
  5 13  1  0  0  0  0
  6 14  1  0  0  0  0
  7 15  1  0  0  0  0
  7 16  1  0  0  0  0
  7 17  1  0  0  0  0
  8 18  1  0  0  0  0
  8 19  1  0  0  0  0
  8 20  1  0  0  0  0
M  END
$$$$
