C7H12O2
APtclcactv12151716213D 0   0.00000     0.00000
 
 21 20  0  0  0  0  0  0  0  0999 V2000
   -1.4033    0.1271   -0.0137 C   0  0  0  0  0  0  0  0  0  0  0  0
   -2.5826   -0.7149   -0.2584 C   0  0  0  0  0  0  0  0  0  0  0  0
   -3.8006   -0.2458    0.0014 C   0  0  0  0  0  0  0  0  0  0  0  0
   -1.5403    1.2517    0.4260 O   0  0  0  0  0  0  0  0  0  0  0  0
   -0.1693   -0.3501   -0.2717 O   0  0  0  0  0  0  0  0  0  0  0  0
    0.9492    0.5369   -0.0061 C   0  0  0  0  0  0  0  0  0  0  0  0
    2.2580   -0.1736   -0.3571 C   0  0  0  0  0  0  0  0  0  0  0  0
    3.4264    0.8010   -0.1961 C   0  0  0  0  0  0  0  0  0  0  0  0
    2.4571   -1.3675    0.5788 C   0  0  0  0  0  0  0  0  0  0  0  0
   -2.4609   -1.7143   -0.6492 H   0  0  0  0  0  0  0  0  0  0  0  0
   -4.6673   -0.8646   -0.1784 H   0  0  0  0  0  0  0  0  0  0  0  0
   -3.9224    0.7536    0.3922 H   0  0  0  0  0  0  0  0  0  0  0  0
    0.8508    1.4374   -0.6123 H   0  0  0  0  0  0  0  0  0  0  0  0
    0.9550    0.8084    1.0496 H   0  0  0  0  0  0  0  0  0  0  0  0
    2.2162   -0.5235   -1.3885 H   0  0  0  0  0  0  0  0  0  0  0  0
    3.4683    1.1509    0.8354 H   0  0  0  0  0  0  0  0  0  0  0  0
    4.3589    0.2948   -0.4462 H   0  0  0  0  0  0  0  0  0  0  0  0
    3.2846    1.6516   -0.8628 H   0  0  0  0  0  0  0  0  0  0  0  0
    3.3895   -1.8736    0.3287 H   0  0  0  0  0  0  0  0  0  0  0  0
    2.4989   -1.0176    1.6103 H   0  0  0  0  0  0  0  0  0  0  0  0
    1.6247   -2.0618    0.4641 H   0  0  0  0  0  0  0  0  0  0  0  0
  1  2  1  0  0  0  0
  2  3  2  0  0  0  0
  1  4  2  0  0  0  0
  1  5  1  0  0  0  0
  5  6  1  0  0  0  0
  6  7  1  0  0  0  0
  7  8  1  0  0  0  0
  7  9  1  0  0  0  0
  2 10  1  0  0  0  0
  3 11  1  0  0  0  0
  3 12  1  0  0  0  0
  6 13  1  0  0  0  0
  6 14  1  0  0  0  0
  7 15  1  0  0  0  0
  8 16  1  0  0  0  0
  8 17  1  0  0  0  0
  8 18  1  0  0  0  0
  9 19  1  0  0  0  0
  9 20  1  0  0  0  0
  9 21  1  0  0  0  0
M  END
$$$$
