C5H11NO2
APtclcactv12211716453D 0   0.00000     0.00000
 
 19 18  0  0  0  0  0  0  0  0999 V2000
   -1.8075   -0.0504    0.0023 C   0  0  0  0  0  0  0  0  0  0  0  0
   -2.8660    0.7513    0.2333 N   0  0  0  0  0  0  0  0  0  0  0  0
   -0.5620    0.3853    0.2694 O   0  0  0  0  0  0  0  0  0  0  0  0
    0.5300   -0.5318   -0.0041 C   0  0  0  0  0  0  0  0  0  0  0  0
    1.8586    0.1343    0.3595 C   0  0  0  0  0  0  0  0  0  0  0  0
    2.9975   -0.8732    0.1896 C   0  0  0  0  0  0  0  0  0  0  0  0
    2.0967    1.3332   -0.5608 C   0  0  0  0  0  0  0  0  0  0  0  0
   -1.9778   -1.1683   -0.4424 O   0  0  0  0  0  0  0  0  0  0  0  0
   -2.7304    1.6423    0.5921 H   0  0  0  0  0  0  0  0  0  0  0  0
   -3.7634    0.4374    0.0408 H   0  0  0  0  0  0  0  0  0  0  0  0
    0.4024   -1.4363    0.5905 H   0  0  0  0  0  0  0  0  0  0  0  0
    0.5310   -0.7901   -1.0631 H   0  0  0  0  0  0  0  0  0  0  0  0
    1.8241    0.4724    1.3951 H   0  0  0  0  0  0  0  0  0  0  0  0
    3.0320   -1.2113   -0.8460 H   0  0  0  0  0  0  0  0  0  0  0  0
    3.9440   -0.3986    0.4487 H   0  0  0  0  0  0  0  0  0  0  0  0
    2.8278   -1.7273    0.8452 H   0  0  0  0  0  0  0  0  0  0  0  0
    3.0432    1.8077   -0.3017 H   0  0  0  0  0  0  0  0  0  0  0  0
    2.1313    0.9950   -1.5964 H   0  0  0  0  0  0  0  0  0  0  0  0
    1.2854    2.0509   -0.4398 H   0  0  0  0  0  0  0  0  0  0  0  0
  1  2  1  0  0  0  0
  1  3  1  0  0  0  0
  3  4  1  0  0  0  0
  4  5  1  0  0  0  0
  5  6  1  0  0  0  0
  5  7  1  0  0  0  0
  1  8  2  0  0  0  0
  2  9  1  0  0  0  0
  2 10  1  0  0  0  0
  4 11  1  0  0  0  0
  4 12  1  0  0  0  0
  5 13  1  0  0  0  0
  6 14  1  0  0  0  0
  6 15  1  0  0  0  0
  6 16  1  0  0  0  0
  7 17  1  0  0  0  0
  7 18  1  0  0  0  0
  7 19  1  0  0  0  0
M  END
$$$$
