C4H8O2
APtclcactv12211716393D 0   0.00000     0.00000
 
 14 13  0  0  0  0  0  0  0  0999 V2000
    0.6963    0.1361   -0.0608 C   0  0  0  0  0  0  0  0  0  0  0  0
   -0.7281   -0.1936   -0.4260 C   0  0  0  0  0  0  0  0  0  0  0  0
   -1.2079   -1.3802    0.4123 C   0  0  0  0  0  0  0  0  0  0  0  0
   -1.6192    1.0191   -0.1502 C   0  0  0  0  0  0  0  0  0  0  0  0
    0.9706    1.2290    0.3753 O   0  0  0  0  0  0  0  0  0  0  0  0
    1.6593   -0.7861   -0.2148 O   0  0  0  0  0  0  0  0  0  0  0  0
   -0.7818   -0.4508   -1.4838 H   0  0  0  0  0  0  0  0  0  0  0  0
   -1.1543   -1.1230    1.4702 H   0  0  0  0  0  0  0  0  0  0  0  0
   -2.2382   -1.6187    0.1482 H   0  0  0  0  0  0  0  0  0  0  0  0
   -0.5731   -2.2442    0.2159 H   0  0  0  0  0  0  0  0  0  0  0  0
   -1.2774    1.8645   -0.7474 H   0  0  0  0  0  0  0  0  0  0  0  0
   -2.6494    0.7806   -0.4143 H   0  0  0  0  0  0  0  0  0  0  0  0
   -1.5655    1.2764    0.9077 H   0  0  0  0  0  0  0  0  0  0  0  0
    2.5578   -0.5283    0.0329 H   0  0  0  0  0  0  0  0  0  0  0  0
  1  2  1  0  0  0  0
  2  3  1  0  0  0  0
  2  4  1  0  0  0  0
  1  5  2  0  0  0  0
  1  6  1  0  0  0  0
  2  7  1  0  0  0  0
  3  8  1  0  0  0  0
  3  9  1  0  0  0  0
  3 10  1  0  0  0  0
  4 11  1  0  0  0  0
  4 12  1  0  0  0  0
  4 13  1  0  0  0  0
  6 14  1  0  0  0  0
M  END
$$$$
