C4H8
APtclcactv12211716393D 0   0.00000     0.00000
 
 12 11  0  0  0  0  0  0  0  0999 V2000
    1.3051    0.6770   -0.0000 C   0  0  0  0  0  0  0  0  0  0  0  0
    0.0000   -0.0765   -0.0000 C   0  0  0  0  0  0  0  0  0  0  0  0
   -1.3051    0.6770    0.0000 C   0  0  0  0  0  0  0  0  0  0  0  0
   -0.0000   -1.3865   -0.0000 C   0  0  0  0  0  0  0  0  0  0  0  0
    1.6198    0.8587    1.0277 H   0  0  0  0  0  0  0  0  0  0  0  0
    2.0647    0.0879   -0.5138 H   0  0  0  0  0  0  0  0  0  0  0  0
    1.1748    1.6294   -0.5138 H   0  0  0  0  0  0  0  0  0  0  0  0
   -1.6198    0.8587   -1.0277 H   0  0  0  0  0  0  0  0  0  0  0  0
   -2.0647    0.0879    0.5138 H   0  0  0  0  0  0  0  0  0  0  0  0
   -1.1748    1.6294    0.5138 H   0  0  0  0  0  0  0  0  0  0  0  0
    0.9353   -1.9265   -0.0000 H   0  0  0  0  0  0  0  0  0  0  0  0
   -0.9353   -1.9265    0.0000 H   0  0  0  0  0  0  0  0  0  0  0  0
  1  2  1  0  0  0  0
  2  3  1  0  0  0  0
  2  4  2  0  0  0  0
  1  5  1  0  0  0  0
  1  6  1  0  0  0  0
  1  7  1  0  0  0  0
  3  8  1  0  0  0  0
  3  9  1  0  0  0  0
  3 10  1  0  0  0  0
  4 11  1  0  0  0  0
  4 12  1  0  0  0  0
M  END
$$$$
