C4H9Br
APtclcactv12211716403D 0   0.00000     0.00000
 
 14 13  0  0  0  0  0  0  0  0999 V2000
   -0.5226   -0.8111    0.3493 C   0  0  0  0  0  0  0  0  0  0  0  0
   -1.6185   -0.0021   -0.3474 C   0  0  0  0  0  0  0  0  0  0  0  0
   -2.9819   -0.6307   -0.0525 C   0  0  0  0  0  0  0  0  0  0  0  0
   -1.5976    1.4372    0.1710 C   0  0  0  0  0  0  0  0  0  0  0  0
    1.2294   -0.0034   -0.0297 Br  0  0  0  0  0  0  0  0  0  0  0  0
   -0.6982   -0.8097    1.4251 H   0  0  0  0  0  0  0  0  0  0  0  0
   -0.5374   -1.8365   -0.0200 H   0  0  0  0  0  0  0  0  0  0  0  0
   -1.4429   -0.0035   -1.4232 H   0  0  0  0  0  0  0  0  0  0  0  0
   -3.1576   -0.6293    1.0233 H   0  0  0  0  0  0  0  0  0  0  0  0
   -3.7627   -0.0544   -0.5488 H   0  0  0  0  0  0  0  0  0  0  0  0
   -2.9968   -1.6561   -0.4218 H   0  0  0  0  0  0  0  0  0  0  0  0
   -1.7733    1.4386    1.2467 H   0  0  0  0  0  0  0  0  0  0  0  0
   -0.6263    1.8850   -0.0391 H   0  0  0  0  0  0  0  0  0  0  0  0
   -2.3784    2.0135   -0.3254 H   0  0  0  0  0  0  0  0  0  0  0  0
  1  2  1  0  0  0  0
  2  3  1  0  0  0  0
  2  4  1  0  0  0  0
  1  5  1  0  0  0  0
  1  6  1  0  0  0  0
  1  7  1  0  0  0  0
  2  8  1  0  0  0  0
  3  9  1  0  0  0  0
  3 10  1  0  0  0  0
  3 11  1  0  0  0  0
  4 12  1  0  0  0  0
  4 13  1  0  0  0  0
  4 14  1  0  0  0  0
M  END
$$$$
