C7H15NO2
APtclcactv12151716233D 0   0.00000     0.00000
 
 25 24  0  0  0  0  0  0  0  0999 V2000
   -1.5666   -0.5621    0.0144 C   0  0  0  0  0  0  0  0  0  0  0  0
   -2.7945    0.2801    0.3664 C   0  0  0  0  0  0  0  0  0  0  0  0
   -2.9033    1.4551   -0.6075 C   0  0  0  0  0  0  0  0  0  0  0  0
   -4.0525   -0.5849    0.2644 C   0  0  0  0  0  0  0  0  0  0  0  0
   -0.3533    0.2310    0.2269 N   0  0  0  0  0  0  0  0  0  0  0  0
    0.8566   -0.3091   -0.0200 C   0  0  0  0  0  0  0  0  0  0  0  0
    0.9411   -1.4537   -0.4189 O   0  0  0  0  0  0  0  0  0  0  0  0
    1.9716    0.4198    0.1753 O   0  0  0  0  0  0  0  0  0  0  0  0
    3.2400   -0.2263   -0.1111 C   0  0  0  0  0  0  0  0  0  0  0  0
    4.3843    0.7502    0.1682 C   0  0  0  0  0  0  0  0  0  0  0  0
   -1.5384   -1.4469    0.6504 H   0  0  0  0  0  0  0  0  0  0  0  0
   -1.6228   -0.8673   -1.0305 H   0  0  0  0  0  0  0  0  0  0  0  0
   -2.6957    0.6591    1.3836 H   0  0  0  0  0  0  0  0  0  0  0  0
   -3.0021    1.0760   -1.6246 H   0  0  0  0  0  0  0  0  0  0  0  0
   -3.7781    2.0551   -0.3567 H   0  0  0  0  0  0  0  0  0  0  0  0
   -2.0071    2.0713   -0.5348 H   0  0  0  0  0  0  0  0  0  0  0  0
   -3.9750   -1.4220    0.9582 H   0  0  0  0  0  0  0  0  0  0  0  0
   -4.9272    0.0151    0.5152 H   0  0  0  0  0  0  0  0  0  0  0  0
   -4.1513   -0.9640   -0.7527 H   0  0  0  0  0  0  0  0  0  0  0  0
   -0.4208    1.1447    0.5454 H   0  0  0  0  0  0  0  0  0  0  0  0
    3.3507   -1.1064    0.5224 H   0  0  0  0  0  0  0  0  0  0  0  0
    3.2664   -0.5269   -1.1585 H   0  0  0  0  0  0  0  0  0  0  0  0
    4.3580    1.0508    1.2156 H   0  0  0  0  0  0  0  0  0  0  0  0
    5.3365    0.2652   -0.0468 H   0  0  0  0  0  0  0  0  0  0  0  0
    4.2736    1.6303   -0.4653 H   0  0  0  0  0  0  0  0  0  0  0  0
  1  2  1  0  0  0  0
  2  3  1  0  0  0  0
  2  4  1  0  0  0  0
  1  5  1  0  0  0  0
  5  6  1  0  0  0  0
  6  7  2  0  0  0  0
  6  8  1  0  0  0  0
  8  9  1  0  0  0  0
  9 10  1  0  0  0  0
  1 11  1  0  0  0  0
  1 12  1  0  0  0  0
  2 13  1  0  0  0  0
  3 14  1  0  0  0  0
  3 15  1  0  0  0  0
  3 16  1  0  0  0  0
  4 17  1  0  0  0  0
  4 18  1  0  0  0  0
  4 19  1  0  0  0  0
  5 20  1  0  0  0  0
  9 21  1  0  0  0  0
  9 22  1  0  0  0  0
 10 23  1  0  0  0  0
 10 24  1  0  0  0  0
 10 25  1  0  0  0  0
M  END
$$$$
