C8H15N3O2
APtclcactv12151716353D 0   0.00000     0.00000
 
 28 28  0  0  0  0  0  0  0  0999 V2000
    2.2599   -0.6102   -0.1356 C   0  0  0  0  0  0  0  0  0  0  0  0
    3.4952    1.2972    0.9029 C   0  0  0  0  0  0  0  0  0  0  0  0
    4.7236   -0.3810   -0.4818 C   0  0  0  0  0  0  0  0  0  0  0  0
    0.9766    1.0804   -0.1917 H   0  0  0  0  0  0  0  0  0  0  0  0
   -4.5127    0.1557   -0.0459 H   0  0  0  0  0  0  0  0  0  0  0  0
   -0.1502   -1.7583    0.2589 O   0  0  0  0  0  0  0  0  0  0  0  0
   -2.7168   -1.6796    0.1381 O   0  0  0  0  0  0  0  0  0  0  0  0
   -1.5050    1.5487   -0.1513 C   0  0  0  0  0  0  0  0  0  0  0  0
   -3.0323    1.7514   -0.1822 C   0  0  0  0  0  0  0  0  0  0  0  0
   -0.1688   -0.5603    0.0548 C   0  0  0  0  0  0  0  0  0  0  0  0
   -2.5553   -0.4799    0.0285 C   0  0  0  0  0  0  0  0  0  0  0  0
    3.4081    0.3837   -0.3214 C   0  0  0  0  0  0  0  0  0  0  0  0
    0.9873    0.1147   -0.1016 N   0  0  0  0  0  0  0  0  0  0  0  0
   -1.3454    0.0932   -0.0151 N   0  0  0  0  0  0  0  0  0  0  0  0
   -3.5712    0.3886   -0.0601 N   0  0  0  0  0  0  0  0  0  0  0  0
   -1.0538    1.8977   -1.0802 H   0  0  0  0  0  0  0  0  0  0  0  0
   -1.0679    2.0632    0.7044 H   0  0  0  0  0  0  0  0  0  0  0  0
   -3.3536    2.3667    0.6582 H   0  0  0  0  0  0  0  0  0  0  0  0
   -3.3395    2.2011   -1.1264 H   0  0  0  0  0  0  0  0  0  0  0  0
    2.2534   -1.3171   -0.9652 H   0  0  0  0  0  0  0  0  0  0  0  0
    2.3953   -1.1507    0.8012 H   0  0  0  0  0  0  0  0  0  0  0  0
    3.2270    0.9858   -1.2118 H   0  0  0  0  0  0  0  0  0  0  0  0
    3.6763    0.6951    1.7933 H   0  0  0  0  0  0  0  0  0  0  0  0
    4.3132    2.0052    0.7705 H   0  0  0  0  0  0  0  0  0  0  0  0
    2.5580    1.8419    1.0171 H   0  0  0  0  0  0  0  0  0  0  0  0
    4.6616   -1.0317   -1.3540 H   0  0  0  0  0  0  0  0  0  0  0  0
    5.5417    0.3271   -0.6142 H   0  0  0  0  0  0  0  0  0  0  0  0
    4.9048   -0.9830    0.4086 H   0  0  0  0  0  0  0  0  0  0  0  0
 10 14  1  0  0  0  0
 11 14  1  0  0  0  0
  8 14  1  0  0  0  0
 10 13  1  0  0  0  0
  6 10  2  0  0  0  0
 11 15  1  0  0  0  0
  7 11  2  0  0  0  0
  8  9  1  0  0  0  0
  1 13  1  0  0  0  0
  1 12  1  0  0  0  0
  2 12  1  0  0  0  0
  3 12  1  0  0  0  0
  9 15  1  0  0  0  0
  8 16  1  0  0  0  0
  8 17  1  0  0  0  0
  4 13  1  0  0  0  0
  5 15  1  0  0  0  0
  9 18  1  0  0  0  0
  9 19  1  0  0  0  0
  1 20  1  0  0  0  0
  1 21  1  0  0  0  0
 12 22  1  0  0  0  0
  2 23  1  0  0  0  0
  2 24  1  0  0  0  0
  2 25  1  0  0  0  0
  3 26  1  0  0  0  0
  3 27  1  0  0  0  0
  3 28  1  0  0  0  0
M  END
$$$$
