C7H5NO4
APtclcactv12151716143D 0   0.00000     0.00000
 
 17 17  0  0  0  0  0  0  0  0999 V2000
   -0.6810    1.0997   -0.0002 N   0  0  0  0  0  0  0  0  0  0  0  0
   -1.3561   -0.0432    0.0000 C   0  0  0  0  0  0  0  0  0  0  0  0
   -2.8385   -0.0172    0.0002 C   0  0  0  0  0  0  0  0  0  0  0  0
   -3.4638   -1.0578    0.0004 O   0  0  0  0  0  0  0  0  0  0  0  0
   -3.4913    1.1606    0.0000 O   0  0  0  0  0  0  0  0  0  0  0  0
   -0.6898   -1.2669   -0.0003 C   0  0  0  0  0  0  0  0  0  0  0  0
    0.6946   -1.2820   -0.0004 C   0  0  0  0  0  0  0  0  0  0  0  0
    1.3724   -0.0580   -0.0002 C   0  0  0  0  0  0  0  0  0  0  0  0
    2.8510   -0.0197    0.0001 C   0  0  0  0  0  0  0  0  0  0  0  0
    3.4853   -1.0553    0.0002 O   0  0  0  0  0  0  0  0  0  0  0  0
    3.4940    1.1639    0.0003 O   0  0  0  0  0  0  0  0  0  0  0  0
    0.6327    1.1280   -0.0004 C   0  0  0  0  0  0  0  0  0  0  0  0
   -4.4577    1.1268    0.0001 H   0  0  0  0  0  0  0  0  0  0  0  0
   -1.2465   -2.1923   -0.0001 H   0  0  0  0  0  0  0  0  0  0  0  0
    1.2379   -2.2154   -0.0003 H   0  0  0  0  0  0  0  0  0  0  0  0
    4.4606    1.1383    0.0005 H   0  0  0  0  0  0  0  0  0  0  0  0
    1.1465    2.0780   -0.0002 H   0  0  0  0  0  0  0  0  0  0  0  0
  1  2  2  0  0  0  0
  2  3  1  0  0  0  0
  3  4  2  0  0  0  0
  3  5  1  0  0  0  0
  2  6  1  0  0  0  0
  6  7  2  0  0  0  0
  7  8  1  0  0  0  0
  8  9  1  0  0  0  0
  9 10  2  0  0  0  0
  9 11  1  0  0  0  0
  8 12  2  0  0  0  0
  1 12  1  0  0  0  0
  5 13  1  0  0  0  0
  6 14  1  0  0  0  0
  7 15  1  0  0  0  0
 11 16  1  0  0  0  0
 12 17  1  0  0  0  0
M  END
$$$$
