C6H14O
APtclcactv12211717003D 0   0.00000     0.00000
 
 21 20  0  0  0  0  0  0  0  0999 V2000
    2.1158   -0.4743   -0.2877 C   0  0  0  0  0  0  0  0  0  0  0  0
    0.8470    0.1752    0.2685 C   0  0  0  0  0  0  0  0  0  0  0  0
   -0.3766   -0.6196   -0.1918 C   0  0  0  0  0  0  0  0  0  0  0  0
   -1.6454    0.0299    0.3643 C   0  0  0  0  0  0  0  0  0  0  0  0
   -1.8147    1.4228   -0.2455 C   0  0  0  0  0  0  0  0  0  0  0  0
   -2.8578   -0.8331    0.0092 C   0  0  0  0  0  0  0  0  0  0  0  0
    3.2586    0.2681    0.1423 O   0  0  0  0  0  0  0  0  0  0  0  0
    2.1896   -1.4987    0.0774 H   0  0  0  0  0  0  0  0  0  0  0  0
    2.0742   -0.4788   -1.3769 H   0  0  0  0  0  0  0  0  0  0  0  0
    0.8886    0.1797    1.3577 H   0  0  0  0  0  0  0  0  0  0  0  0
    0.7732    1.1996   -0.0966 H   0  0  0  0  0  0  0  0  0  0  0  0
   -0.4182   -0.6241   -1.2810 H   0  0  0  0  0  0  0  0  0  0  0  0
   -0.3029   -1.6440    0.1732 H   0  0  0  0  0  0  0  0  0  0  0  0
   -1.5649    0.1150    1.4480 H   0  0  0  0  0  0  0  0  0  0  0  0
   -2.7186    1.8855    0.1507 H   0  0  0  0  0  0  0  0  0  0  0  0
   -0.9509    2.0377    0.0075 H   0  0  0  0  0  0  0  0  0  0  0  0
   -1.8951    1.3377   -1.3292 H   0  0  0  0  0  0  0  0  0  0  0  0
   -2.7372   -1.8255    0.4436 H   0  0  0  0  0  0  0  0  0  0  0  0
   -3.7617   -0.3704    0.4054 H   0  0  0  0  0  0  0  0  0  0  0  0
   -2.9383   -0.9183   -1.0745 H   0  0  0  0  0  0  0  0  0  0  0  0
    4.1004   -0.0876   -0.1740 H   0  0  0  0  0  0  0  0  0  0  0  0
  1  2  1  0  0  0  0
  2  3  1  0  0  0  0
  3  4  1  0  0  0  0
  4  5  1  0  0  0  0
  4  6  1  0  0  0  0
  1  7  1  0  0  0  0
  1  8  1  0  0  0  0
  1  9  1  0  0  0  0
  2 10  1  0  0  0  0
  2 11  1  0  0  0  0
  3 12  1  0  0  0  0
  3 13  1  0  0  0  0
  4 14  1  0  0  0  0
  5 15  1  0  0  0  0
  5 16  1  0  0  0  0
  5 17  1  0  0  0  0
  6 18  1  0  0  0  0
  6 19  1  0  0  0  0
  6 20  1  0  0  0  0
  7 21  1  0  0  0  0
M  END
$$$$
