C6H7N3O
APtclcactv12211716543D 0   0.00000     0.00000
 
 17 17  0  0  0  0  0  0  0  0999 V2000
    1.1108    1.2026   -0.0010 C   0  0  0  0  0  0  0  0  0  0  0  0
    0.7651   -1.1713   -0.0016 C   0  0  0  0  0  0  0  0  0  0  0  0
    2.4704    0.9578    0.0059 C   0  0  0  0  0  0  0  0  0  0  0  0
    2.1381   -1.3244    0.0049 C   0  0  0  0  0  0  0  0  0  0  0  0
   -1.7152   -1.6264   -0.0136 H   0  0  0  0  0  0  0  0  0  0  0  0
   -3.9194   -1.4084   -0.0240 H   0  0  0  0  0  0  0  0  0  0  0  0
   -3.7114    0.0446    0.7580 H   0  0  0  0  0  0  0  0  0  0  0  0
    0.2270    0.1192   -0.0049 C   0  0  0  0  0  0  0  0  0  0  0  0
   -1.6886    1.4616   -0.0142 O   0  0  0  0  0  0  0  0  0  0  0  0
   -1.2390    0.3327   -0.0119 C   0  0  0  0  0  0  0  0  0  0  0  0
   -3.4258   -0.5283   -0.0219 N   0  0  0  0  0  0  0  0  0  0  0  0
   -2.0741   -0.7252   -0.0155 N   0  0  0  0  0  0  0  0  0  0  0  0
    2.9361   -0.2754    0.0084 N   0  0  0  0  0  0  0  0  0  0  0  0
    0.7363    2.2155    0.0011 H   0  0  0  0  0  0  0  0  0  0  0  0
    0.1172   -2.0353   -0.0048 H   0  0  0  0  0  0  0  0  0  0  0  0
    3.1612    1.7880    0.0090 H   0  0  0  0  0  0  0  0  0  0  0  0
    2.5633   -2.3172    0.0075 H   0  0  0  0  0  0  0  0  0  0  0  0
  8 10  1  0  0  0  0
  1  8  2  0  0  0  0
  2  8  1  0  0  0  0
 10 12  1  0  0  0  0
  9 10  2  0  0  0  0
  1  3  1  0  0  0  0
  2  4  2  0  0  0  0
 11 12  1  0  0  0  0
  3 13  2  0  0  0  0
  4 13  1  0  0  0  0
  1 14  1  0  0  0  0
  2 15  1  0  0  0  0
  5 12  1  0  0  0  0
  3 16  1  0  0  0  0
  4 17  1  0  0  0  0
  6 11  1  0  0  0  0
  7 11  1  0  0  0  0
M  END
$$$$
