C8H6O4
APtclcactv12151716263D 0   0.00000     0.00000
 
 18 18  0  0  0  0  0  0  0  0999 V2000
    2.4874    0.5687   -0.0011 C   0  0  0  0  0  0  0  0  0  0  0  0
    1.2050   -0.1650   -0.0004 C   0  0  0  0  0  0  0  0  0  0  0  0
    0.0000    0.5350   -0.0001 C   0  0  0  0  0  0  0  0  0  0  0  0
   -1.2050   -0.1650    0.0006 C   0  0  0  0  0  0  0  0  0  0  0  0
   -2.4874    0.5687    0.0003 C   0  0  0  0  0  0  0  0  0  0  0  0
   -2.4922    1.7833   -0.0005 O   0  0  0  0  0  0  0  0  0  0  0  0
   -3.6513   -0.1095    0.0010 O   0  0  0  0  0  0  0  0  0  0  0  0
   -1.1976   -1.5624    0.0010 C   0  0  0  0  0  0  0  0  0  0  0  0
   -0.0000   -2.2495    0.0008 C   0  0  0  0  0  0  0  0  0  0  0  0
    1.1976   -1.5624   -0.0057 C   0  0  0  0  0  0  0  0  0  0  0  0
    2.4922    1.7833   -0.0014 O   0  0  0  0  0  0  0  0  0  0  0  0
    3.6513   -0.1095    0.0043 O   0  0  0  0  0  0  0  0  0  0  0  0
    0.0000    1.6150   -0.0002 H   0  0  0  0  0  0  0  0  0  0  0  0
   -4.4644    0.4139    0.0008 H   0  0  0  0  0  0  0  0  0  0  0  0
   -2.1307   -2.1061    0.0019 H   0  0  0  0  0  0  0  0  0  0  0  0
   -0.0000   -3.3295    0.0015 H   0  0  0  0  0  0  0  0  0  0  0  0
    2.1307   -2.1061   -0.0062 H   0  0  0  0  0  0  0  0  0  0  0  0
    4.4644    0.4139    0.0036 H   0  0  0  0  0  0  0  0  0  0  0  0
  1  2  1  0  0  0  0
  2  3  2  0  0  0  0
  3  4  1  0  0  0  0
  4  5  1  0  0  0  0
  5  6  2  0  0  0  0
  5  7  1  0  0  0  0
  4  8  2  0  0  0  0
  8  9  1  0  0  0  0
  9 10  2  0  0  0  0
  2 10  1  0  0  0  0
  1 11  2  0  0  0  0
  1 12  1  0  0  0  0
  3 13  1  0  0  0  0
  7 14  1  0  0  0  0
  8 15  1  0  0  0  0
  9 16  1  0  0  0  0
 10 17  1  0  0  0  0
 12 18  1  0  0  0  0
M  END
$$$$
