C3H7Cl
APtclcactv12101715383D 0   0.00000     0.00000
 
 11 10  0  0  0  0  0  0  0  0999 V2000
    0.5109   -0.0000    0.4252 C   0  0  0  0  0  0  0  0  0  0  0  0
    1.1924   -1.2492   -0.1368 C   0  0  0  0  0  0  0  0  0  0  0  0
    1.1924    1.2492   -0.1368 C   0  0  0  0  0  0  0  0  0  0  0  0
   -1.2289   -0.0000   -0.0482 Cl  0  0  0  0  0  0  0  0  0  0  0  0
    0.5916   -0.0000    1.5122 H   0  0  0  0  0  0  0  0  0  0  0  0
    2.2441   -1.2492    0.1493 H   0  0  0  0  0  0  0  0  0  0  0  0
    0.7069   -2.1392    0.2636 H   0  0  0  0  0  0  0  0  0  0  0  0
    1.1116   -1.2492   -1.2239 H   0  0  0  0  0  0  0  0  0  0  0  0
    1.1116    1.2492   -1.2239 H   0  0  0  0  0  0  0  0  0  0  0  0
    0.7069    2.1392    0.2636 H   0  0  0  0  0  0  0  0  0  0  0  0
    2.2441    1.2492    0.1493 H   0  0  0  0  0  0  0  0  0  0  0  0
  1  2  1  0  0  0  0
  1  3  1  0  0  0  0
  1  4  1  0  0  0  0
  1  5  1  0  0  0  0
  2  6  1  0  0  0  0
  2  7  1  0  0  0  0
  2  8  1  0  0  0  0
  3  9  1  0  0  0  0
  3 10  1  0  0  0  0
  3 11  1  0  0  0  0
M  END
$$$$
