C7H14O2
APtclcactv12151716223D 0   0.00000     0.00000
 
 23 22  0  0  0  0  0  0  0  0999 V2000
   -0.2642    0.0173   -0.1046 C   0  0  0  0  0  0  0  0  0  0  0  0
   -1.5838   -0.5686    0.3273 C   0  0  0  0  0  0  0  0  0  0  0  0
   -2.7256    0.3031   -0.1993 C   0  0  0  0  0  0  0  0  0  0  0  0
   -4.0653   -0.2917    0.2393 C   0  0  0  0  0  0  0  0  0  0  0  0
   -0.2395    1.0282   -0.7658 O   0  0  0  0  0  0  0  0  0  0  0  0
    0.8839   -0.5810    0.2499 O   0  0  0  0  0  0  0  0  0  0  0  0
    2.1170    0.0388   -0.2015 C   0  0  0  0  0  0  0  0  0  0  0  0
    2.5918    1.0500    0.8439 C   0  0  0  0  0  0  0  0  0  0  0  0
    3.1879   -1.0369   -0.3938 C   0  0  0  0  0  0  0  0  0  0  0  0
   -1.6821   -1.5774   -0.0737 H   0  0  0  0  0  0  0  0  0  0  0  0
   -1.6264   -0.6046    1.4159 H   0  0  0  0  0  0  0  0  0  0  0  0
   -2.6272    1.3119    0.2017 H   0  0  0  0  0  0  0  0  0  0  0  0
   -2.6829    0.3391   -1.2878 H   0  0  0  0  0  0  0  0  0  0  0  0
   -4.1079   -0.3276    1.3278 H   0  0  0  0  0  0  0  0  0  0  0  0
   -4.8787    0.3294   -0.1359 H   0  0  0  0  0  0  0  0  0  0  0  0
   -4.1636   -1.3004   -0.1617 H   0  0  0  0  0  0  0  0  0  0  0  0
    1.9414    0.5501   -1.1480 H   0  0  0  0  0  0  0  0  0  0  0  0
    2.7675    0.5388    1.7904 H   0  0  0  0  0  0  0  0  0  0  0  0
    3.5175    1.5154    0.5051 H   0  0  0  0  0  0  0  0  0  0  0  0
    1.8289    1.8164    0.9810 H   0  0  0  0  0  0  0  0  0  0  0  0
    2.8495   -1.7573   -1.1386 H   0  0  0  0  0  0  0  0  0  0  0  0
    4.1135   -0.5715   -0.7326 H   0  0  0  0  0  0  0  0  0  0  0  0
    3.3635   -1.5481    0.5527 H   0  0  0  0  0  0  0  0  0  0  0  0
  1  2  1  0  0  0  0
  2  3  1  0  0  0  0
  3  4  1  0  0  0  0
  1  5  2  0  0  0  0
  1  6  1  0  0  0  0
  6  7  1  0  0  0  0
  7  8  1  0  0  0  0
  7  9  1  0  0  0  0
  2 10  1  0  0  0  0
  2 11  1  0  0  0  0
  3 12  1  0  0  0  0
  3 13  1  0  0  0  0
  4 14  1  0  0  0  0
  4 15  1  0  0  0  0
  4 16  1  0  0  0  0
  7 17  1  0  0  0  0
  8 18  1  0  0  0  0
  8 19  1  0  0  0  0
  8 20  1  0  0  0  0
  9 21  1  0  0  0  0
  9 22  1  0  0  0  0
  9 23  1  0  0  0  0
M  END
$$$$
