C8H17NO2
APtclcactv12211716593D 0   0.00000     0.00000
 
 28 27  0  0  0  0  0  0  0  0999 V2000
   -0.9954   -0.2378    0.2309 C   0  0  0  0  0  0  0  0  0  0  0  0
   -2.1749    0.7086   -0.0017 C   0  0  0  0  0  0  0  0  0  0  0  0
   -3.4849   -0.0312    0.2768 C   0  0  0  0  0  0  0  0  0  0  0  0
   -4.6564    0.9467    0.1657 C   0  0  0  0  0  0  0  0  0  0  0  0
   -3.6618   -1.1570   -0.7441 C   0  0  0  0  0  0  0  0  0  0  0  0
    0.2589    0.4706   -0.0357 N   0  0  0  0  0  0  0  0  0  0  0  0
    1.4370   -0.1688    0.1050 C   0  0  0  0  0  0  0  0  0  0  0  0
    1.4587   -1.3329    0.4530 O   0  0  0  0  0  0  0  0  0  0  0  0
    2.5898    0.4821   -0.1400 O   0  0  0  0  0  0  0  0  0  0  0  0
    3.8204   -0.2690    0.0319 C   0  0  0  0  0  0  0  0  0  0  0  0
    5.0159    0.6301   -0.2894 C   0  0  0  0  0  0  0  0  0  0  0  0
   -1.0050   -0.5831    1.2647 H   0  0  0  0  0  0  0  0  0  0  0  0
   -1.0788   -1.0937   -0.4388 H   0  0  0  0  0  0  0  0  0  0  0  0
   -2.0916    1.5645    0.6681 H   0  0  0  0  0  0  0  0  0  0  0  0
   -2.1653    1.0539   -1.0355 H   0  0  0  0  0  0  0  0  0  0  0  0
   -3.4576   -0.4528    1.2815 H   0  0  0  0  0  0  0  0  0  0  0  0
   -4.6837    1.3683   -0.8391 H   0  0  0  0  0  0  0  0  0  0  0  0
   -5.5896    0.4196    0.3641 H   0  0  0  0  0  0  0  0  0  0  0  0
   -4.5304    1.7487    0.8930 H   0  0  0  0  0  0  0  0  0  0  0  0
   -3.6891   -0.7354   -1.7489 H   0  0  0  0  0  0  0  0  0  0  0  0
   -2.8272   -1.8536   -0.6650 H   0  0  0  0  0  0  0  0  0  0  0  0
   -4.5951   -1.6840   -0.5457 H   0  0  0  0  0  0  0  0  0  0  0  0
    0.2416    1.3998   -0.3135 H   0  0  0  0  0  0  0  0  0  0  0  0
    3.8933   -0.6160    1.0626 H   0  0  0  0  0  0  0  0  0  0  0  0
    3.8196   -1.1266   -0.6410 H   0  0  0  0  0  0  0  0  0  0  0  0
    4.9429    0.9771   -1.3202 H   0  0  0  0  0  0  0  0  0  0  0  0
    5.0167    1.4877    0.3834 H   0  0  0  0  0  0  0  0  0  0  0  0
    5.9397    0.0662   -0.1604 H   0  0  0  0  0  0  0  0  0  0  0  0
  1  2  1  0  0  0  0
  2  3  1  0  0  0  0
  3  4  1  0  0  0  0
  3  5  1  0  0  0  0
  1  6  1  0  0  0  0
  6  7  1  0  0  0  0
  7  8  2  0  0  0  0
  7  9  1  0  0  0  0
  9 10  1  0  0  0  0
 10 11  1  0  0  0  0
  1 12  1  0  0  0  0
  1 13  1  0  0  0  0
  2 14  1  0  0  0  0
  2 15  1  0  0  0  0
  3 16  1  0  0  0  0
  4 17  1  0  0  0  0
  4 18  1  0  0  0  0
  4 19  1  0  0  0  0
  5 20  1  0  0  0  0
  5 21  1  0  0  0  0
  5 22  1  0  0  0  0
  6 23  1  0  0  0  0
 10 24  1  0  0  0  0
 10 25  1  0  0  0  0
 11 26  1  0  0  0  0
 11 27  1  0  0  0  0
 11 28  1  0  0  0  0
M  END
$$$$
