C12H18O4S2
APtclcactv12141705293D 0   0.00000     0.00000
 
 36 36  0  0  0  0  0  0  0  0999 V2000
    3.7580   -2.3875   -0.8625 C   0  0  0  0  0  0  0  0  0  0  0  0
    2.6834   -2.9547    1.3206 C   0  0  0  0  0  0  0  0  0  0  0  0
    2.6834    2.9547    1.3206 C   0  0  0  0  0  0  0  0  0  0  0  0
    3.7580    2.3875   -0.8625 C   0  0  0  0  0  0  0  0  0  0  0  0
   -0.1798   -2.2809   -0.0715 O   0  0  0  0  0  0  0  0  0  0  0  0
   -0.1798    2.2809   -0.0715 O   0  0  0  0  0  0  0  0  0  0  0  0
   -4.3403    0.7537    0.0020 C   0  0  0  0  0  0  0  0  0  0  0  0
   -4.3403   -0.7537    0.0020 C   0  0  0  0  0  0  0  0  0  0  0  0
   -0.2797   -0.0000   -0.0698 C   0  0  0  0  0  0  0  0  0  0  0  0
    0.4286   -1.2270   -0.0823 C   0  0  0  0  0  0  0  0  0  0  0  0
    0.4286    1.2270   -0.0823 C   0  0  0  0  0  0  0  0  0  0  0  0
    1.7777   -1.2270   -0.1061 O   0  0  0  0  0  0  0  0  0  0  0  0
    1.7777    1.2270   -0.1061 O   0  0  0  0  0  0  0  0  0  0  0  0
   -1.6822   -0.0000   -0.0450 C   0  0  0  0  0  0  0  0  0  0  0  0
    2.4264   -2.5002   -0.1176 C   0  0  0  0  0  0  0  0  0  0  0  0
    2.4264    2.5002   -0.1176 C   0  0  0  0  0  0  0  0  0  0  0  0
   -2.6799    1.4371   -0.0273 S   0  0  0  0  0  0  0  0  0  0  0  0
   -2.6799   -1.4371   -0.0273 S   0  0  0  0  0  0  0  0  0  0  0  0
   -4.8833    1.1070   -0.8746 H   0  0  0  0  0  0  0  0  0  0  0  0
   -4.8520    1.1070    0.8972 H   0  0  0  0  0  0  0  0  0  0  0  0
   -4.8520   -1.1070    0.8972 H   0  0  0  0  0  0  0  0  0  0  0  0
   -4.8833   -1.1070   -0.8746 H   0  0  0  0  0  0  0  0  0  0  0  0
    1.7894   -3.2280   -0.6202 H   0  0  0  0  0  0  0  0  0  0  0  0
    1.7894    3.2280   -0.6202 H   0  0  0  0  0  0  0  0  0  0  0  0
    4.3950   -1.6597   -0.3598 H   0  0  0  0  0  0  0  0  0  0  0  0
    4.2528   -3.3587   -0.8712 H   0  0  0  0  0  0  0  0  0  0  0  0
    3.5750   -2.0638   -1.8870 H   0  0  0  0  0  0  0  0  0  0  0  0
    1.7346   -3.0350    1.8513 H   0  0  0  0  0  0  0  0  0  0  0  0
    3.1781   -3.9259    1.3119 H   0  0  0  0  0  0  0  0  0  0  0  0
    3.3204   -2.2269    1.8233 H   0  0  0  0  0  0  0  0  0  0  0  0
    3.1781    3.9259    1.3119 H   0  0  0  0  0  0  0  0  0  0  0  0
    1.7346    3.0350    1.8513 H   0  0  0  0  0  0  0  0  0  0  0  0
    3.3204    2.2269    1.8233 H   0  0  0  0  0  0  0  0  0  0  0  0
    3.5750    2.0638   -1.8870 H   0  0  0  0  0  0  0  0  0  0  0  0
    4.2528    3.3587   -0.8712 H   0  0  0  0  0  0  0  0  0  0  0  0
    4.3950    1.6597   -0.3598 H   0  0  0  0  0  0  0  0  0  0  0  0
  9 14  2  0  0  0  0
  9 10  1  0  0  0  0
  9 11  1  0  0  0  0
 14 17  1  0  0  0  0
 14 18  1  0  0  0  0
 10 12  1  0  0  0  0
  5 10  2  0  0  0  0
 11 13  1  0  0  0  0
  6 11  2  0  0  0  0
  7 17  1  0  0  0  0
  8 18  1  0  0  0  0
 12 15  1  0  0  0  0
 13 16  1  0  0  0  0
  1 15  1  0  0  0  0
  2 15  1  0  0  0  0
  3 16  1  0  0  0  0
  4 16  1  0  0  0  0
  7  8  1  0  0  0  0
  7 19  1  0  0  0  0
  7 20  1  0  0  0  0
  8 21  1  0  0  0  0
  8 22  1  0  0  0  0
 15 23  1  0  0  0  0
 16 24  1  0  0  0  0
  1 25  1  0  0  0  0
  1 26  1  0  0  0  0
  1 27  1  0  0  0  0
  2 28  1  0  0  0  0
  2 29  1  0  0  0  0
  2 30  1  0  0  0  0
  3 31  1  0  0  0  0
  3 32  1  0  0  0  0
  3 33  1  0  0  0  0
  4 34  1  0  0  0  0
  4 35  1  0  0  0  0
  4 36  1  0  0  0  0
M  END
$$$$
