C3H7Br
APtclcactv12101715373D 0   0.00000     0.00000
 
 11 10  0  0  0  0  0  0  0  0999 V2000
    1.0712   -0.0000    0.4375 C   0  0  0  0  0  0  0  0  0  0  0  0
    1.7350   -1.2492   -0.1453 C   0  0  0  0  0  0  0  0  0  0  0  0
    1.7350    1.2492   -0.1453 C   0  0  0  0  0  0  0  0  0  0  0  0
   -0.8408   -0.0000   -0.0198 Br  0  0  0  0  0  0  0  0  0  0  0  0
    1.1856   -0.0000    1.5215 H   0  0  0  0  0  0  0  0  0  0  0  0
    2.7951   -1.2492    0.1082 H   0  0  0  0  0  0  0  0  0  0  0  0
    1.2621   -2.1392    0.2699 H   0  0  0  0  0  0  0  0  0  0  0  0
    1.6207   -1.2492   -1.2293 H   0  0  0  0  0  0  0  0  0  0  0  0
    1.6207    1.2492   -1.2293 H   0  0  0  0  0  0  0  0  0  0  0  0
    1.2621    2.1392    0.2699 H   0  0  0  0  0  0  0  0  0  0  0  0
    2.7951    1.2492    0.1082 H   0  0  0  0  0  0  0  0  0  0  0  0
  1  2  1  0  0  0  0
  1  3  1  0  0  0  0
  1  4  1  0  0  0  0
  1  5  1  0  0  0  0
  2  6  1  0  0  0  0
  2  7  1  0  0  0  0
  2  8  1  0  0  0  0
  3  9  1  0  0  0  0
  3 10  1  0  0  0  0
  3 11  1  0  0  0  0
M  END
$$$$
