C3H7I
APtclcactv12101715383D 0   0.00000     0.00000
 
 11 10  0  0  0  0  0  0  0  0999 V2000
    1.4562   -0.0000    0.4451 C   0  0  0  0  0  0  0  0  0  0  0  0
    2.1070   -1.2492   -0.1522 C   0  0  0  0  0  0  0  0  0  0  0  0
    2.1070    1.2492   -0.1522 C   0  0  0  0  0  0  0  0  0  0  0  0
   -0.6571    0.0000   -0.0114 I   0  0  0  0  0  0  0  0  0  0  0  0
    1.5943   -0.0000    1.5263 H   0  0  0  0  0  0  0  0  0  0  0  0
    3.1724   -1.2492    0.0780 H   0  0  0  0  0  0  0  0  0  0  0  0
    1.6433   -2.1392    0.2734 H   0  0  0  0  0  0  0  0  0  0  0  0
    1.9689   -1.2492   -1.2334 H   0  0  0  0  0  0  0  0  0  0  0  0
    1.9689    1.2492   -1.2334 H   0  0  0  0  0  0  0  0  0  0  0  0
    1.6433    2.1392    0.2734 H   0  0  0  0  0  0  0  0  0  0  0  0
    3.1724    1.2492    0.0780 H   0  0  0  0  0  0  0  0  0  0  0  0
  1  2  1  0  0  0  0
  1  3  1  0  0  0  0
  1  4  1  0  0  0  0
  1  5  1  0  0  0  0
  2  6  1  0  0  0  0
  2  7  1  0  0  0  0
  2  8  1  0  0  0  0
  3  9  1  0  0  0  0
  3 10  1  0  0  0  0
  3 11  1  0  0  0  0
M  END
$$$$
