C14H12O5
APtclcactv12091702573D 0   0.00000     0.00000
 
 31 33  0  0  0  0  0  0  0  0999 V2000
    3.2747   -0.8489    0.1535 C   0  0  0  0  0  0  0  0  0  0  0  0
    3.9078    0.3177   -0.0218 C   0  0  0  0  0  0  0  0  0  0  0  0
    0.8118   -3.4911   -0.7446 C   0  0  0  0  0  0  0  0  0  0  0  0
    0.3743    3.6285    0.7318 C   0  0  0  0  0  0  0  0  0  0  0  0
   -4.3123    1.3235   -0.2324 C   0  0  0  0  0  0  0  0  0  0  0  0
    0.6803   -1.3182    0.2077 C   0  0  0  0  0  0  0  0  0  0  0  0
    0.5062    1.4515   -0.2198 C   0  0  0  0  0  0  0  0  0  0  0  0
   -1.8056   -2.6699    0.3980 O   0  0  0  0  0  0  0  0  0  0  0  0
    0.7634   -2.6570    0.4148 O   0  0  0  0  0  0  0  0  0  0  0  0
    0.4234    2.7945   -0.4275 O   0  0  0  0  0  0  0  0  0  0  0  0
   -1.8154   -1.4647    0.2124 C   0  0  0  0  0  0  0  0  0  0  0  0
   -3.0047    0.5843   -0.1104 C   0  0  0  0  0  0  0  0  0  0  0  0
   -0.5641   -0.6954    0.1030 C   0  0  0  0  0  0  0  0  0  0  0  0
   -0.6508    0.6955   -0.1121 C   0  0  0  0  0  0  0  0  0  0  0  0
   -1.8664    1.2789   -0.2101 O   0  0  0  0  0  0  0  0  0  0  0  0
   -3.0346   -0.7442    0.0924 C   0  0  0  0  0  0  0  0  0  0  0  0
    1.8381   -0.5473    0.0973 C   0  0  0  0  0  0  0  0  0  0  0  0
    1.7524    0.8400   -0.1168 C   0  0  0  0  0  0  0  0  0  0  0  0
    3.0152    1.3115   -0.1808 O   0  0  0  0  0  0  0  0  0  0  0  0
   -3.9801   -1.2610    0.1655 H   0  0  0  0  0  0  0  0  0  0  0  0
    3.7288   -1.8175    0.3017 H   0  0  0  0  0  0  0  0  0  0  0  0
    0.8770   -4.5352   -0.4386 H   0  0  0  0  0  0  0  0  0  0  0  0
   -0.0906   -3.3418   -1.3375 H   0  0  0  0  0  0  0  0  0  0  0  0
    1.6860   -3.2323   -1.3420 H   0  0  0  0  0  0  0  0  0  0  0  0
   -0.5005    3.3700    1.3286 H   0  0  0  0  0  0  0  0  0  0  0  0
    1.2761    3.4790    1.3255 H   0  0  0  0  0  0  0  0  0  0  0  0
    0.3097    4.6727    0.4258 H   0  0  0  0  0  0  0  0  0  0  0  0
   -4.1166    2.3835   -0.3944 H   0  0  0  0  0  0  0  0  0  0  0  0
   -4.8774    0.9254   -1.0752 H   0  0  0  0  0  0  0  0  0  0  0  0
   -4.8885    1.1962    0.6840 H   0  0  0  0  0  0  0  0  0  0  0  0
    4.9805    0.4429   -0.0332 H   0  0  0  0  0  0  0  0  0  0  0  0
 13 14  1  0  0  0  0
  6 13  2  0  0  0  0
 11 13  1  0  0  0  0
  7 14  2  0  0  0  0
 14 15  1  0  0  0  0
  6 17  1  0  0  0  0
  6  9  1  0  0  0  0
 11 16  1  0  0  0  0
  8 11  2  0  0  0  0
  7 18  1  0  0  0  0
  7 10  1  0  0  0  0
 12 15  1  0  0  0  0
  1 17  1  0  0  0  0
  3  9  1  0  0  0  0
 18 19  1  0  0  0  0
  4 10  1  0  0  0  0
  5 12  1  0  0  0  0
  1  2  2  0  0  0  0
 17 18  2  0  0  0  0
 12 16  2  0  0  0  0
  2 19  1  0  0  0  0
 16 20  1  0  0  0  0
  1 21  1  0  0  0  0
  3 22  1  0  0  0  0
  3 23  1  0  0  0  0
  3 24  1  0  0  0  0
  4 25  1  0  0  0  0
  4 26  1  0  0  0  0
  4 27  1  0  0  0  0
  5 28  1  0  0  0  0
  5 29  1  0  0  0  0
  5 30  1  0  0  0  0
  2 31  1  0  0  0  0
M  END
$$$$
