C11H17O3PS
APtclcactv12111704483D 0   0.00000     0.00000
 
 33 33  0  0  0  0  0  0  0  0999 V2000
    3.1949   -0.5309   -1.0445 C   0  0  0  0  0  0  0  0  0  0  0  0
    2.1011    0.5028    0.8177 C   0  0  0  0  0  0  0  0  0  0  0  0
    4.1245   -1.0904   -0.1879 C   0  0  0  0  0  0  0  0  0  0  0  0
    3.0307   -0.0567    1.6743 C   0  0  0  0  0  0  0  0  0  0  0  0
    4.0423   -0.8535    1.1715 C   0  0  0  0  0  0  0  0  0  0  0  0
    1.1697    0.8754   -1.4755 C   0  0  0  0  0  0  0  0  0  0  0  0
   -2.3112   -2.4622    0.2818 C   0  0  0  0  0  0  0  0  0  0  0  0
   -1.1023    2.6761    0.2278 C   0  0  0  0  0  0  0  0  0  0  0  0
   -3.6613   -3.1805    0.3270 C   0  0  0  0  0  0  0  0  0  0  0  0
   -1.9856    3.9097    0.4248 C   0  0  0  0  0  0  0  0  0  0  0  0
    2.1831    0.2655   -0.5417 C   0  0  0  0  0  0  0  0  0  0  0  0
   -0.4191   -0.1861    1.2857 O   0  0  0  0  0  0  0  0  0  0  0  0
   -2.5245   -1.0519    0.1955 O   0  0  0  0  0  0  0  0  0  0  0  0
   -1.9225    1.5073    0.1706 O   0  0  0  0  0  0  0  0  0  0  0  0
   -1.3203    0.0147    0.1290 P   0  0  0  0  0  0  0  0  0  0  0  0
   -0.2327   -0.2587   -1.6701 S   0  0  0  0  0  0  0  0  0  0  0  0
    0.8178    1.8208   -1.0625 H   0  0  0  0  0  0  0  0  0  0  0  0
    1.6312    1.0526   -2.4469 H   0  0  0  0  0  0  0  0  0  0  0  0
   -1.7480   -2.6898    1.1869 H   0  0  0  0  0  0  0  0  0  0  0  0
   -1.7496   -2.7987   -0.5897 H   0  0  0  0  0  0  0  0  0  0  0  0
   -0.5438    2.7740   -0.7031 H   0  0  0  0  0  0  0  0  0  0  0  0
   -0.4060    2.5908    1.0620 H   0  0  0  0  0  0  0  0  0  0  0  0
   -3.4986   -4.2562    0.3928 H   0  0  0  0  0  0  0  0  0  0  0  0
   -4.2229   -2.8439    1.1985 H   0  0  0  0  0  0  0  0  0  0  0  0
   -4.2244   -2.9529   -0.5781 H   0  0  0  0  0  0  0  0  0  0  0  0
   -2.6819    3.9950   -0.4095 H   0  0  0  0  0  0  0  0  0  0  0  0
   -2.5441    3.8119    1.3557 H   0  0  0  0  0  0  0  0  0  0  0  0
   -1.3600    4.8013    0.4684 H   0  0  0  0  0  0  0  0  0  0  0  0
    3.2618   -0.7124   -2.1070 H   0  0  0  0  0  0  0  0  0  0  0  0
    1.3106    1.1250    1.2105 H   0  0  0  0  0  0  0  0  0  0  0  0
    4.9148   -1.7129   -0.5807 H   0  0  0  0  0  0  0  0  0  0  0  0
    2.9669    0.1290    2.7363 H   0  0  0  0  0  0  0  0  0  0  0  0
    4.7681   -1.2912    1.8408 H   0  0  0  0  0  0  0  0  0  0  0  0
 15 16  1  0  0  0  0
  6 16  1  0  0  0  0
 13 15  1  0  0  0  0
 14 15  1  0  0  0  0
 12 15  2  0  0  0  0
  7 13  1  0  0  0  0
  8 14  1  0  0  0  0
  6 11  1  0  0  0  0
  7  9  1  0  0  0  0
  8 10  1  0  0  0  0
  1 11  2  0  0  0  0
  2 11  1  0  0  0  0
  1  3  1  0  0  0  0
  2  4  2  0  0  0  0
  3  5  2  0  0  0  0
  4  5  1  0  0  0  0
  6 17  1  0  0  0  0
  6 18  1  0  0  0  0
  7 19  1  0  0  0  0
  7 20  1  0  0  0  0
  8 21  1  0  0  0  0
  8 22  1  0  0  0  0
  9 23  1  0  0  0  0
  9 24  1  0  0  0  0
  9 25  1  0  0  0  0
 10 26  1  0  0  0  0
 10 27  1  0  0  0  0
 10 28  1  0  0  0  0
  1 29  1  0  0  0  0
  2 30  1  0  0  0  0
  3 31  1  0  0  0  0
  4 32  1  0  0  0  0
  5 33  1  0  0  0  0
M  END
$$$$
