C6H9N3
APtclcactv12211716553D 0   0.00000     0.00000
 
 18 18  0  0  0  0  0  0  0  0999 V2000
   -0.1876   -1.3587   -0.0002 C   0  0  0  0  0  0  0  0  0  0  0  0
   -2.6751   -1.0490   -0.0000 C   0  0  0  0  0  0  0  0  0  0  0  0
    0.3513    2.7928   -0.0001 C   0  0  0  0  0  0  0  0  0  0  0  0
    2.1101   -2.5868   -0.0007 H   0  0  0  0  0  0  0  0  0  0  0  0
    3.1008   -1.2299   -0.0001 H   0  0  0  0  0  0  0  0  0  0  0  0
   -1.2707   -0.5023   -0.0002 C   0  0  0  0  0  0  0  0  0  0  0  0
    1.0948   -0.8055    0.0001 C   0  0  0  0  0  0  0  0  0  0  0  0
    0.1624    1.2977    0.0002 C   0  0  0  0  0  0  0  0  0  0  0  0
    2.2137   -1.6224   -0.0003 N   0  0  0  0  0  0  0  0  0  0  0  0
   -1.0603    0.8066   -0.0001 N   0  0  0  0  0  0  0  0  0  0  0  0
    1.2246    0.5178    0.0003 N   0  0  0  0  0  0  0  0  0  0  0  0
   -0.3285   -2.4294    0.0041 H   0  0  0  0  0  0  0  0  0  0  0  0
   -3.0136   -1.1806    1.0277 H   0  0  0  0  0  0  0  0  0  0  0  0
   -3.3365   -0.3515   -0.5139 H   0  0  0  0  0  0  0  0  0  0  0  0
   -2.6909   -2.0102   -0.5137 H   0  0  0  0  0  0  0  0  0  0  0  0
    0.3965    3.1535    1.0275 H   0  0  0  0  0  0  0  0  0  0  0  0
    1.2799    3.0416   -0.5137 H   0  0  0  0  0  0  0  0  0  0  0  0
   -0.4860    3.2647   -0.5143 H   0  0  0  0  0  0  0  0  0  0  0  0
  1  6  2  0  0  0  0
  6 10  1  0  0  0  0
  2  6  1  0  0  0  0
  1  7  1  0  0  0  0
  8 10  2  0  0  0  0
  7 11  2  0  0  0  0
  7  9  1  0  0  0  0
  3  8  1  0  0  0  0
  8 11  1  0  0  0  0
  1 12  1  0  0  0  0
  2 13  1  0  0  0  0
  2 14  1  0  0  0  0
  2 15  1  0  0  0  0
  4  9  1  0  0  0  0
  5  9  1  0  0  0  0
  3 16  1  0  0  0  0
  3 17  1  0  0  0  0
  3 18  1  0  0  0  0
M  END
$$$$
