C4H7NO4
APtclcactv12211716393D 0   0.00000     0.00000
 
 16 15  0  0  1  0  0  0  0  0999 V2000
    0.3153    1.6931   -0.0459 N   0  0  0  0  0  0  0  0  0  0  0  0
    0.4790    0.2879    0.3497 C   0  0  1  0  0  0  0  0  0  0  0  0
    0.2998    0.1885    1.4203 H   0  0  0  0  0  0  0  0  0  0  0  0
   -0.5225   -0.5778   -0.4175 C   0  0  0  0  0  0  0  0  0  0  0  0
   -1.9244   -0.2085   -0.0060 C   0  0  0  0  0  0  0  0  0  0  0  0
   -2.1041    0.6582    0.8165 O   0  0  0  0  0  0  0  0  0  0  0  0
   -2.9735   -0.8424   -0.5532 O   0  0  0  0  0  0  0  0  0  0  0  0
    1.8809   -0.1637    0.0309 C   0  0  0  0  0  0  0  0  0  0  0  0
    2.5428    0.4447   -0.7764 O   0  0  0  0  0  0  0  0  0  0  0  0
    2.3944   -1.2419    0.6438 O   0  0  0  0  0  0  0  0  0  0  0  0
    0.4764    1.8115   -1.0349 H   0  0  0  0  0  0  0  0  0  0  0  0
   -0.5957    2.0387    0.2161 H   0  0  0  0  0  0  0  0  0  0  0  0
   -0.4021   -0.4108   -1.4878 H   0  0  0  0  0  0  0  0  0  0  0  0
   -0.3424   -1.6288   -0.1913 H   0  0  0  0  0  0  0  0  0  0  0  0
   -3.8533   -0.5709   -0.2577 H   0  0  0  0  0  0  0  0  0  0  0  0
    3.2976   -1.4931    0.4067 H   0  0  0  0  0  0  0  0  0  0  0  0
  1  2  1  0  0  0  0
  2  3  1  0  0  0  0
  2  4  1  0  0  0  0
  4  5  1  0  0  0  0
  5  6  2  0  0  0  0
  5  7  1  0  0  0  0
  2  8  1  0  0  0  0
  8  9  2  0  0  0  0
  8 10  1  0  0  0  0
  1 11  1  0  0  0  0
  1 12  1  0  0  0  0
  4 13  1  0  0  0  0
  4 14  1  0  0  0  0
  7 15  1  0  0  0  0
 10 16  1  0  0  0  0
M  END
$$$$
