C5H9NO3
APtclcactv12211716433D 0   0.00000     0.00000
 
 18 18  0  0  1  0  0  0  0  0999 V2000
    0.1672    1.3596   -0.2814 N   0  0  0  0  0  0  0  0  0  0  0  0
   -0.3847   -0.0035   -0.4920 C   0  0  2  0  0  0  0  0  0  0  0  0
   -0.3239   -0.2797   -1.5447 H   0  0  0  0  0  0  0  0  0  0  0  0
   -1.8119   -0.0725   -0.0132 C   0  0  0  0  0  0  0  0  0  0  0  0
   -2.2346    0.7646    0.7488 O   0  0  0  0  0  0  0  0  0  0  0  0
   -2.6135   -1.0638   -0.4331 O   0  0  0  0  0  0  0  0  0  0  0  0
    0.5165   -0.9238    0.3589 C   0  0  0  0  0  0  0  0  0  0  0  0
    1.8480   -0.1584    0.5038 C   0  0  1  0  0  0  0  0  0  0  0  0
    2.0533    0.0486    1.5540 H   0  0  0  0  0  0  0  0  0  0  0  0
    2.9181   -0.9109   -0.0713 O   0  0  0  0  0  0  0  0  0  0  0  0
    1.6393    1.1599   -0.2718 C   0  0  0  0  0  0  0  0  0  0  0  0
   -0.1086    1.9807   -1.0272 H   0  0  0  0  0  0  0  0  0  0  0  0
   -3.5208   -1.0662   -0.0987 H   0  0  0  0  0  0  0  0  0  0  0  0
    0.0683   -1.0924    1.3381 H   0  0  0  0  0  0  0  0  0  0  0  0
    0.6790   -1.8726   -0.1524 H   0  0  0  0  0  0  0  0  0  0  0  0
    3.7808   -0.4783   -0.0094 H   0  0  0  0  0  0  0  0  0  0  0  0
    2.0168    1.0658   -1.2901 H   0  0  0  0  0  0  0  0  0  0  0  0
    2.1316    1.9855    0.2422 H   0  0  0  0  0  0  0  0  0  0  0  0
  1  2  1  0  0  0  0
  2  3  1  0  0  0  0
  2  4  1  0  0  0  0
  4  5  2  0  0  0  0
  4  6  1  0  0  0  0
  2  7  1  0  0  0  0
  7  8  1  0  0  0  0
  8  9  1  0  0  0  0
  8 10  1  0  0  0  0
  8 11  1  0  0  0  0
  1 11  1  0  0  0  0
  1 12  1  0  0  0  0
  6 13  1  0  0  0  0
  7 14  1  0  0  0  0
  7 15  1  0  0  0  0
 10 16  1  0  0  0  0
 11 17  1  0  0  0  0
 11 18  1  0  0  0  0
M  END
$$$$
