C10H20O
APtclcactv12211717303D 0   0.00000     0.00000
 
 31 31  0  0  1  0  0  0  0  0999 V2000
   -0.6720    0.0640    0.4461 C   0  0  1  0  0  0  0  0  0  0  0  0
    0.0843   -1.1139   -0.1715 C   0  0  1  0  0  0  0  0  0  0  0  0
    2.1276    0.3084   -0.3818 C   0  0  1  0  0  0  0  0  0  0  0  0
   -2.9345    1.0527    0.8283 C   0  0  0  0  0  0  0  0  0  0  0  0
   -2.3435    0.1135   -1.4102 C   0  0  0  0  0  0  0  0  0  0  0  0
    3.6139    0.4188   -0.0357 C   0  0  0  0  0  0  0  0  0  0  0  0
   -0.0024   -3.1300   -0.0007 H   0  0  0  0  0  0  0  0  0  0  0  0
   -0.1150    1.3759   -0.1102 C   0  0  0  0  0  0  0  0  0  0  0  0
    1.5705   -1.0035    0.1745 C   0  0  0  0  0  0  0  0  0  0  0  0
    1.3713    1.4863    0.2359 C   0  0  0  0  0  0  0  0  0  0  0  0
   -0.4361   -2.3392    0.3481 O   0  0  0  0  0  0  0  0  0  0  0  0
   -2.1583   -0.0464    0.1001 C   0  0  0  0  0  0  0  0  0  0  0  0
   -0.5489    0.0472    1.5290 H   0  0  0  0  0  0  0  0  0  0  0  0
   -0.0389   -1.0971   -1.2544 H   0  0  0  0  0  0  0  0  0  0  0  0
   -0.2381    1.3927   -1.1931 H   0  0  0  0  0  0  0  0  0  0  0  0
   -0.6538    2.2150    0.3298 H   0  0  0  0  0  0  0  0  0  0  0  0
   -2.5322   -1.0221    0.4107 H   0  0  0  0  0  0  0  0  0  0  0  0
    1.6937   -1.0203    1.2574 H   0  0  0  0  0  0  0  0  0  0  0  0
    2.1093   -1.8426   -0.2655 H   0  0  0  0  0  0  0  0  0  0  0  0
    1.4944    1.4694    1.3187 H   0  0  0  0  0  0  0  0  0  0  0  0
    1.7682    2.4209   -0.1605 H   0  0  0  0  0  0  0  0  0  0  0  0
   -2.6256    2.0272    0.4502 H   0  0  0  0  0  0  0  0  0  0  0  0
   -4.0024    0.9181    0.6565 H   0  0  0  0  0  0  0  0  0  0  0  0
   -2.7285    0.9957    1.8972 H   0  0  0  0  0  0  0  0  0  0  0  0
   -1.9697    1.0892   -1.7208 H   0  0  0  0  0  0  0  0  0  0  0  0
   -1.7905   -0.6695   -1.9291 H   0  0  0  0  0  0  0  0  0  0  0  0
   -3.4024    0.0349   -1.6568 H   0  0  0  0  0  0  0  0  0  0  0  0
    2.0045    0.3252   -1.4647 H   0  0  0  0  0  0  0  0  0  0  0  0
    4.1527   -0.4204   -0.4758 H   0  0  0  0  0  0  0  0  0  0  0  0
    4.0108    1.3534   -0.4321 H   0  0  0  0  0  0  0  0  0  0  0  0
    3.7370    0.4020    1.0472 H   0  0  0  0  0  0  0  0  0  0  0  0
  1  2  1  0  0  0  0
  1  8  1  0  0  0  0
  1 12  1  0  0  0  0
  2  9  1  0  0  0  0
  2 11  1  0  0  0  0
  8 10  1  0  0  0  0
  4 12  1  0  0  0  0
  5 12  1  0  0  0  0
  3  9  1  0  0  0  0
  3  6  1  0  0  0  0
  3 10  1  0  0  0  0
  1 13  1  0  0  0  0
  2 14  1  0  0  0  0
  8 15  1  0  0  0  0
  8 16  1  0  0  0  0
 12 17  1  0  0  0  0
  9 18  1  0  0  0  0
  9 19  1  0  0  0  0
  7 11  1  0  0  0  0
 10 20  1  0  0  0  0
 10 21  1  0  0  0  0
  4 22  1  0  0  0  0
  4 23  1  0  0  0  0
  4 24  1  0  0  0  0
  5 25  1  0  0  0  0
  5 26  1  0  0  0  0
  5 27  1  0  0  0  0
  3 28  1  0  0  0  0
  6 29  1  0  0  0  0
  6 30  1  0  0  0  0
  6 31  1  0  0  0  0
M  END
$$$$
