C10H18O
APtclcactv12211717283D 0   0.00000     0.00000
 
 29 29  0  0  1  0  0  0  0  0999 V2000
   -0.6797    0.2798    0.3170 C   0  0  2  0  0  0  0  0  0  0  0  0
    2.2237    0.0993   -0.3055 C   0  0  1  0  0  0  0  0  0  0  0  0
   -2.8608   -0.9381    0.3559 C   0  0  0  0  0  0  0  0  0  0  0  0
   -2.8183    1.5377    0.0233 C   0  0  0  0  0  0  0  0  0  0  0  0
    3.6964    0.1111    0.1089 C   0  0  0  0  0  0  0  0  0  0  0  0
   -0.5441   -1.9613   -0.4437 O   0  0  0  0  0  0  0  0  0  0  0  0
    0.1029    1.4289   -0.3273 C   0  0  0  0  0  0  0  0  0  0  0  0
    1.5208   -1.0998    0.3397 C   0  0  0  0  0  0  0  0  0  0  0  0
    1.5524    1.3925    0.1599 C   0  0  0  0  0  0  0  0  0  0  0  0
    0.0433   -1.0168    0.0265 C   0  0  0  0  0  0  0  0  0  0  0  0
   -2.0905    0.2249   -0.2725 C   0  0  0  0  0  0  0  0  0  0  0  0
   -0.7359    0.4342    1.3946 H   0  0  0  0  0  0  0  0  0  0  0  0
    0.0811    1.3204   -1.4117 H   0  0  0  0  0  0  0  0  0  0  0  0
   -0.3509    2.3796   -0.0477 H   0  0  0  0  0  0  0  0  0  0  0  0
    1.9296   -2.0253   -0.0657 H   0  0  0  0  0  0  0  0  0  0  0  0
    1.6683   -1.0731    1.4194 H   0  0  0  0  0  0  0  0  0  0  0  0
   -2.0282    0.0789   -1.3509 H   0  0  0  0  0  0  0  0  0  0  0  0
    1.5698    1.4383    1.2488 H   0  0  0  0  0  0  0  0  0  0  0  0
    2.0927    2.2476   -0.2463 H   0  0  0  0  0  0  0  0  0  0  0  0
    2.1516    0.0223   -1.3904 H   0  0  0  0  0  0  0  0  0  0  0  0
   -2.9231   -0.7922    1.4343 H   0  0  0  0  0  0  0  0  0  0  0  0
   -3.8659   -0.9773   -0.0641 H   0  0  0  0  0  0  0  0  0  0  0  0
   -2.3423   -1.8735    0.1452 H   0  0  0  0  0  0  0  0  0  0  0  0
   -2.2695    2.3663   -0.4244 H   0  0  0  0  0  0  0  0  0  0  0  0
   -3.8234    1.4985   -0.3967 H   0  0  0  0  0  0  0  0  0  0  0  0
   -2.8806    1.6837    1.1017 H   0  0  0  0  0  0  0  0  0  0  0  0
    4.1743   -0.8111   -0.2218 H   0  0  0  0  0  0  0  0  0  0  0  0
    4.1962    0.9641   -0.3502 H   0  0  0  0  0  0  0  0  0  0  0  0
    3.7680    0.1887    1.1938 H   0  0  0  0  0  0  0  0  0  0  0  0
  1 10  1  0  0  0  0
  8 10  1  0  0  0  0
  6 10  2  0  0  0  0
  1  7  1  0  0  0  0
  1 11  1  0  0  0  0
  7  9  1  0  0  0  0
  2  8  1  0  0  0  0
  3 11  1  0  0  0  0
  4 11  1  0  0  0  0
  2  9  1  0  0  0  0
  2  5  1  0  0  0  0
  1 12  1  0  0  0  0
  7 13  1  0  0  0  0
  7 14  1  0  0  0  0
  8 15  1  0  0  0  0
  8 16  1  0  0  0  0
 11 17  1  0  0  0  0
  9 18  1  0  0  0  0
  9 19  1  0  0  0  0
  2 20  1  0  0  0  0
  3 21  1  0  0  0  0
  3 22  1  0  0  0  0
  3 23  1  0  0  0  0
  4 24  1  0  0  0  0
  4 25  1  0  0  0  0
  4 26  1  0  0  0  0
  5 27  1  0  0  0  0
  5 28  1  0  0  0  0
  5 29  1  0  0  0  0
M  END
$$$$
