C4H6O6
APtclcactv12211716383D 0   0.00000     0.00000
 
 16 15  0  0  1  0  0  0  0  0999 V2000
    1.8997   -0.2083   -0.1139 C   0  0  0  0  0  0  0  0  0  0  0  0
    0.4752   -0.2658   -0.6023 C   0  0  2  0  0  0  0  0  0  0  0  0
    0.3287   -1.1725   -1.1892 H   0  0  0  0  0  0  0  0  0  0  0  0
    0.2041    0.8773   -1.4159 O   0  0  0  0  0  0  0  0  0  0  0  0
   -0.4750   -0.2753    0.5968 C   0  0  1  0  0  0  0  0  0  0  0  0
   -0.3291   -1.1916    1.1688 H   0  0  0  0  0  0  0  0  0  0  0  0
   -0.2032    0.8542    1.4290 O   0  0  0  0  0  0  0  0  0  0  0  0
   -1.8995   -0.2088    0.1094 C   0  0  0  0  0  0  0  0  0  0  0  0
   -2.5813    0.7552    0.3656 O   0  0  0  0  0  0  0  0  0  0  0  0
   -2.4108   -1.2206   -0.6093 O   0  0  0  0  0  0  0  0  0  0  0  0
    2.5822    0.7594   -0.3543 O   0  0  0  0  0  0  0  0  0  0  0  0
    2.4086   -1.2296    0.5930 O   0  0  0  0  0  0  0  0  0  0  0  0
    0.3147    1.7215   -0.9575 H   0  0  0  0  0  0  0  0  0  0  0  0
   -0.3132    1.7059    0.9844 H   0  0  0  0  0  0  0  0  0  0  0  0
   -3.3289   -1.1327   -0.8998 H   0  0  0  0  0  0  0  0  0  0  0  0
    3.3269   -1.1472    0.8846 H   0  0  0  0  0  0  0  0  0  0  0  0
  1  2  1  0  0  0  0
  2  3  1  0  0  0  0
  2  4  1  0  0  0  0
  2  5  1  0  0  0  0
  5  6  1  0  0  0  0
  5  7  1  0  0  0  0
  5  8  1  0  0  0  0
  8  9  2  0  0  0  0
  8 10  1  0  0  0  0
  1 11  2  0  0  0  0
  1 12  1  0  0  0  0
  4 13  1  0  0  0  0
  7 14  1  0  0  0  0
 10 15  1  0  0  0  0
 12 16  1  0  0  0  0
M  END
$$$$
