C5H11NO2
APtclcactv12211716463D 0   0.00000     0.00000
 
 19 18  0  0  1  0  0  0  0  0999 V2000
   -0.2014    1.9079    0.2641 N   0  0  0  0  0  0  0  0  0  0  0  0
   -0.1193    0.4539    0.4572 C   0  0  1  0  0  0  0  0  0  0  0  0
   -0.2839    0.2172    1.5083 H   0  0  0  0  0  0  0  0  0  0  0  0
   -1.1879   -0.2347   -0.3942 C   0  0  0  0  0  0  0  0  0  0  0  0
   -1.1024   -1.7490   -0.1930 C   0  0  0  0  0  0  0  0  0  0  0  0
   -2.5730    0.2585    0.0289 C   0  0  0  0  0  0  0  0  0  0  0  0
    1.2450   -0.0319    0.0405 C   0  0  0  0  0  0  0  0  0  0  0  0
    1.9284    0.6424   -0.6930 O   0  0  0  0  0  0  0  0  0  0  0  0
    1.7010   -1.2138    0.4843 O   0  0  0  0  0  0  0  0  0  0  0  0
    0.4511    2.3897    0.8642 H   0  0  0  0  0  0  0  0  0  0  0  0
   -0.0521    2.1532   -0.7032 H   0  0  0  0  0  0  0  0  0  0  0  0
   -1.0233    0.0021   -1.4453 H   0  0  0  0  0  0  0  0  0  0  0  0
   -1.2670   -1.9858    0.8581 H   0  0  0  0  0  0  0  0  0  0  0  0
   -1.8637   -2.2397   -0.7995 H   0  0  0  0  0  0  0  0  0  0  0  0
   -0.1156   -2.1005   -0.4944 H   0  0  0  0  0  0  0  0  0  0  0  0
   -2.6339    1.3374   -0.1144 H   0  0  0  0  0  0  0  0  0  0  0  0
   -3.3343   -0.2321   -0.5776 H   0  0  0  0  0  0  0  0  0  0  0  0
   -2.7377    0.0218    1.0800 H   0  0  0  0  0  0  0  0  0  0  0  0
    2.5818   -1.4831    0.1899 H   0  0  0  0  0  0  0  0  0  0  0  0
  1  2  1  0  0  0  0
  2  3  1  0  0  0  0
  2  4  1  0  0  0  0
  4  5  1  0  0  0  0
  4  6  1  0  0  0  0
  2  7  1  0  0  0  0
  7  8  2  0  0  0  0
  7  9  1  0  0  0  0
  1 10  1  0  0  0  0
  1 11  1  0  0  0  0
  4 12  1  0  0  0  0
  5 13  1  0  0  0  0
  5 14  1  0  0  0  0
  5 15  1  0  0  0  0
  6 16  1  0  0  0  0
  6 17  1  0  0  0  0
  6 18  1  0  0  0  0
  9 19  1  0  0  0  0
M  END
$$$$
