C13H18N2O2
APtclcactv12091702533D 0   0.00000     0.00000
 
 35 37  0  0  0  0  0  0  0  0999 V2000
   -1.6022    2.6017   -0.0219 H   0  0  0  0  0  0  0  0  0  0  0  0
   -0.5498   -2.1850   -0.0619 O   0  0  0  0  0  0  0  0  0  0  0  0
    0.7670    2.0526    0.0126 O   0  0  0  0  0  0  0  0  0  0  0  0
    2.2882    0.0441   -1.2358 C   0  0  0  0  0  0  0  0  0  0  0  0
    2.2453    0.0145    1.2622 C   0  0  0  0  0  0  0  0  0  0  0  0
    3.7503   -0.4061   -1.2160 C   0  0  0  0  0  0  0  0  0  0  0  0
    3.7074   -0.4357    1.2819 C   0  0  0  0  0  0  0  0  0  0  0  0
   -3.4530   -1.3722   -0.1009 C   0  0  0  0  0  0  0  0  0  0  0  0
    4.4283    0.1183    0.0514 C   0  0  0  0  0  0  0  0  0  0  0  0
   -3.9385    0.9769   -0.0825 C   0  0  0  0  0  0  0  0  0  0  0  0
   -4.5555   -0.3785    0.3261 C   0  0  0  0  0  0  0  0  0  0  0  0
    1.5673   -0.5099   -0.0052 C   0  0  0  0  0  0  0  0  0  0  0  0
   -0.8184   -0.9973   -0.0520 C   0  0  0  0  0  0  0  0  0  0  0  0
   -0.1313    1.2336   -0.0127 C   0  0  0  0  0  0  0  0  0  0  0  0
   -2.1703   -0.5709   -0.0701 C   0  0  0  0  0  0  0  0  0  0  0  0
   -2.4422    0.7500   -0.0594 C   0  0  0  0  0  0  0  0  0  0  0  0
    0.1673   -0.0788   -0.0241 N   0  0  0  0  0  0  0  0  0  0  0  0
   -1.4088    1.6512   -0.0302 N   0  0  0  0  0  0  0  0  0  0  0  0
    1.6123   -1.5989   -0.0174 H   0  0  0  0  0  0  0  0  0  0  0  0
    2.2431    1.1331   -1.2236 H   0  0  0  0  0  0  0  0  0  0  0  0
    1.8051   -0.3294   -2.1387 H   0  0  0  0  0  0  0  0  0  0  0  0
    1.7317   -0.3802    2.1388 H   0  0  0  0  0  0  0  0  0  0  0  0
    2.2002    1.1035    1.2743 H   0  0  0  0  0  0  0  0  0  0  0  0
    3.7954   -1.4951   -1.2282 H   0  0  0  0  0  0  0  0  0  0  0  0
    4.2639   -0.0114   -2.0927 H   0  0  0  0  0  0  0  0  0  0  0  0
    4.1904   -0.0621    2.1848 H   0  0  0  0  0  0  0  0  0  0  0  0
    3.7525   -1.5247    1.2698 H   0  0  0  0  0  0  0  0  0  0  0  0
   -3.3979   -2.2024    0.6032 H   0  0  0  0  0  0  0  0  0  0  0  0
   -3.6451   -1.7411   -1.1084 H   0  0  0  0  0  0  0  0  0  0  0  0
    5.4699   -0.2024    0.0654 H   0  0  0  0  0  0  0  0  0  0  0  0
    4.3832    1.2073    0.0635 H   0  0  0  0  0  0  0  0  0  0  0  0
   -4.2640    1.2542   -1.0852 H   0  0  0  0  0  0  0  0  0  0  0  0
   -4.2153    1.7504    0.6338 H   0  0  0  0  0  0  0  0  0  0  0  0
   -5.4808   -0.5655   -0.2188 H   0  0  0  0  0  0  0  0  0  0  0  0
   -4.7232   -0.4216    1.4023 H   0  0  0  0  0  0  0  0  0  0  0  0
 12 17  1  0  0  0  0
 13 17  1  0  0  0  0
 14 17  1  0  0  0  0
  4 12  1  0  0  0  0
  5 12  1  0  0  0  0
 13 15  1  0  0  0  0
  2 13  2  0  0  0  0
 14 18  1  0  0  0  0
  3 14  2  0  0  0  0
  4  6  1  0  0  0  0
  5  7  1  0  0  0  0
 15 16  2  0  0  0  0
  8 15  1  0  0  0  0
  6  9  1  0  0  0  0
 10 16  1  0  0  0  0
  8 11  1  0  0  0  0
 16 18  1  0  0  0  0
  7  9  1  0  0  0  0
 10 11  1  0  0  0  0
 12 19  1  0  0  0  0
  4 20  1  0  0  0  0
  4 21  1  0  0  0  0
  5 22  1  0  0  0  0
  5 23  1  0  0  0  0
  1 18  1  0  0  0  0
  6 24  1  0  0  0  0
  6 25  1  0  0  0  0
  7 26  1  0  0  0  0
  7 27  1  0  0  0  0
  8 28  1  0  0  0  0
  8 29  1  0  0  0  0
  9 30  1  0  0  0  0
  9 31  1  0  0  0  0
 10 32  1  0  0  0  0
 10 33  1  0  0  0  0
 11 34  1  0  0  0  0
 11 35  1  0  0  0  0
M  END
$$$$
