C13H10BrCl2O2PS
APtclcactv12091702483D 0   0.00000     0.00000
 
 30 31  0  0  0  0  0  0  0  0999 V2000
    1.9594    1.7864    0.8564 C   0  0  0  0  0  0  0  0  0  0  0  0
    3.7266    1.5343   -0.7392 C   0  0  0  0  0  0  0  0  0  0  0  0
    2.1820    3.1503    0.8875 C   0  0  0  0  0  0  0  0  0  0  0  0
    3.9493    2.8983   -0.7081 C   0  0  0  0  0  0  0  0  0  0  0  0
   -0.3272    0.4938   -0.8160 C   0  0  0  0  0  0  0  0  0  0  0  0
    3.1768    3.7063    0.1051 C   0  0  0  0  0  0  0  0  0  0  0  0
   -2.1179   -1.5013   -0.1183 C   0  0  0  0  0  0  0  0  0  0  0  0
    5.0580   -1.2431    0.3126 C   0  0  0  0  0  0  0  0  0  0  0  0
    2.7315    0.9784    0.0428 C   0  0  0  0  0  0  0  0  0  0  0  0
    0.0802   -0.8314   -0.8072 C   0  0  0  0  0  0  0  0  0  0  0  0
   -0.8188   -1.8300   -0.4572 C   0  0  0  0  0  0  0  0  0  0  0  0
   -1.6279    0.8186   -0.4763 C   0  0  0  0  0  0  0  0  0  0  0  0
   -2.5227   -0.1785   -0.1277 C   0  0  0  0  0  0  0  0  0  0  0  0
    1.3582   -1.1527   -1.1412 O   0  0  0  0  0  0  0  0  0  0  0  0
    3.8204   -1.5734   -0.3208 O   0  0  0  0  0  0  0  0  0  0  0  0
   -0.3115   -3.4901   -0.4447 Cl  0  0  0  0  0  0  0  0  0  0  0  0
   -2.1387    2.4777   -0.4866 Cl  0  0  0  0  0  0  0  0  0  0  0  0
    2.4393   -0.8114    0.0020 P   0  0  0  0  0  0  0  0  0  0  0  0
   -4.3006    0.2683    0.3363 Br  0  0  0  0  0  0  0  0  0  0  0  0
    1.7921   -1.3731    1.6567 S   0  0  0  0  0  0  0  0  0  0  0  0
    1.1851    1.3515    1.4710 H   0  0  0  0  0  0  0  0  0  0  0  0
    4.3299    0.9031   -1.3748 H   0  0  0  0  0  0  0  0  0  0  0  0
    5.3096   -0.2042    0.0990 H   0  0  0  0  0  0  0  0  0  0  0  0
    4.9627   -1.3797    1.3898 H   0  0  0  0  0  0  0  0  0  0  0  0
    5.8458   -1.8933   -0.0679 H   0  0  0  0  0  0  0  0  0  0  0  0
    1.5784    3.7816    1.5228 H   0  0  0  0  0  0  0  0  0  0  0  0
    4.7270    3.3326   -1.3188 H   0  0  0  0  0  0  0  0  0  0  0  0
    0.3718    1.2723   -1.0836 H   0  0  0  0  0  0  0  0  0  0  0  0
    3.3502    4.7720    0.1289 H   0  0  0  0  0  0  0  0  0  0  0  0
   -2.8176   -2.2778    0.1536 H   0  0  0  0  0  0  0  0  0  0  0  0
  9 18  1  0  0  0  0
 14 18  1  0  0  0  0
 15 18  1  0  0  0  0
 18 20  2  0  0  0  0
  1  9  2  0  0  0  0
  2  9  1  0  0  0  0
 10 14  1  0  0  0  0
  8 15  1  0  0  0  0
  1  3  1  0  0  0  0
  2  4  2  0  0  0  0
 10 11  1  0  0  0  0
  5 10  2  0  0  0  0
  3  6  2  0  0  0  0
  7 11  2  0  0  0  0
 11 16  1  0  0  0  0
  5 12  1  0  0  0  0
  7 13  1  0  0  0  0
 12 17  1  0  0  0  0
 13 19  1  0  0  0  0
  4  6  1  0  0  0  0
 12 13  2  0  0  0  0
  1 21  1  0  0  0  0
  2 22  1  0  0  0  0
  8 23  1  0  0  0  0
  8 24  1  0  0  0  0
  8 25  1  0  0  0  0
  3 26  1  0  0  0  0
  4 27  1  0  0  0  0
  5 28  1  0  0  0  0
  6 29  1  0  0  0  0
  7 30  1  0  0  0  0
M  END
$$$$
