C14H22N2O
APtclcactv12211717043D 0   0.00000     0.00000
 
 39 39  0  0  0  0  0  0  0  0999 V2000
    4.1369    0.5351    0.4258 C   0  0  0  0  0  0  0  0  0  0  0  0
    4.3265   -0.8344    0.4004 C   0  0  0  0  0  0  0  0  0  0  0  0
    3.2977   -1.6707    0.0074 C   0  0  0  0  0  0  0  0  0  0  0  0
   -1.8254    0.8037   -0.6493 C   0  0  0  0  0  0  0  0  0  0  0  0
   -2.8787    0.3885    1.4910 C   0  0  0  0  0  0  0  0  0  0  0  0
   -4.2122    0.4148   -0.5298 C   0  0  0  0  0  0  0  0  0  0  0  0
    0.9561   -2.0522   -0.7885 C   0  0  0  0  0  0  0  0  0  0  0  0
    2.7129    2.5646    0.0863 C   0  0  0  0  0  0  0  0  0  0  0  0
   -3.7187   -0.6489    2.2389 C   0  0  0  0  0  0  0  0  0  0  0  0
   -4.3743   -0.3228   -1.8605 C   0  0  0  0  0  0  0  0  0  0  0  0
    0.6103    1.5150   -1.3346 H   0  0  0  0  0  0  0  0  0  0  0  0
    2.9185    1.0720    0.0588 C   0  0  0  0  0  0  0  0  0  0  0  0
    2.0769   -1.1401   -0.3608 C   0  0  0  0  0  0  0  0  0  0  0  0
    1.8831    0.2348   -0.3359 C   0  0  0  0  0  0  0  0  0  0  0  0
   -0.4431   -0.6173    0.6313 O   0  0  0  0  0  0  0  0  0  0  0  0
   -0.4916    0.2690   -0.1953 C   0  0  0  0  0  0  0  0  0  0  0  0
    0.6473    0.7756   -0.7079 N   0  0  0  0  0  0  0  0  0  0  0  0
   -2.9025    0.0927    0.0523 N   0  0  0  0  0  0  0  0  0  0  0  0
    4.9411    1.1853    0.7372 H   0  0  0  0  0  0  0  0  0  0  0  0
    5.2802   -1.2518    0.6879 H   0  0  0  0  0  0  0  0  0  0  0  0
    3.4491   -2.7398   -0.0120 H   0  0  0  0  0  0  0  0  0  0  0  0
    0.2961   -2.2389    0.0587 H   0  0  0  0  0  0  0  0  0  0  0  0
    0.3907   -1.5808   -1.5924 H   0  0  0  0  0  0  0  0  0  0  0  0
    1.3706   -2.9966   -1.1411 H   0  0  0  0  0  0  0  0  0  0  0  0
    2.9841    2.9866   -0.8814 H   0  0  0  0  0  0  0  0  0  0  0  0
    1.6662    2.7834    0.2976 H   0  0  0  0  0  0  0  0  0  0  0  0
    3.3396    3.0035    0.8626 H   0  0  0  0  0  0  0  0  0  0  0  0
   -1.8858    1.8684   -0.4237 H   0  0  0  0  0  0  0  0  0  0  0  0
   -1.9305    0.6535   -1.7237 H   0  0  0  0  0  0  0  0  0  0  0  0
   -3.7258   -0.4119    3.3028 H   0  0  0  0  0  0  0  0  0  0  0  0
   -4.7393   -0.6341    1.8564 H   0  0  0  0  0  0  0  0  0  0  0  0
   -3.2893   -1.6396    2.0902 H   0  0  0  0  0  0  0  0  0  0  0  0
   -3.2904    1.3827    1.6644 H   0  0  0  0  0  0  0  0  0  0  0  0
   -1.8510    0.3527    1.8523 H   0  0  0  0  0  0  0  0  0  0  0  0
   -4.2801    1.4893   -0.6994 H   0  0  0  0  0  0  0  0  0  0  0  0
   -5.0008    0.1046    0.1559 H   0  0  0  0  0  0  0  0  0  0  0  0
   -3.6477    0.0584   -2.5780 H   0  0  0  0  0  0  0  0  0  0  0  0
   -4.2086   -1.3892   -1.7073 H   0  0  0  0  0  0  0  0  0  0  0  0
   -5.3820   -0.1631   -2.2441 H   0  0  0  0  0  0  0  0  0  0  0  0
  1 12  2  0  0  0  0
  1  2  1  0  0  0  0
 12 14  1  0  0  0  0
  8 12  1  0  0  0  0
  2  3  2  0  0  0  0
  3 13  1  0  0  0  0
 13 14  2  0  0  0  0
  7 13  1  0  0  0  0
 14 17  1  0  0  0  0
 16 17  1  0  0  0  0
  4 16  1  0  0  0  0
 15 16  2  0  0  0  0
  4 18  1  0  0  0  0
  5 18  1  0  0  0  0
  6 18  1  0  0  0  0
  5  9  1  0  0  0  0
  6 10  1  0  0  0  0
  1 19  1  0  0  0  0
  2 20  1  0  0  0  0
  3 21  1  0  0  0  0
  7 22  1  0  0  0  0
  7 23  1  0  0  0  0
  7 24  1  0  0  0  0
 11 17  1  0  0  0  0
  8 25  1  0  0  0  0
  8 26  1  0  0  0  0
  8 27  1  0  0  0  0
  4 28  1  0  0  0  0
  4 29  1  0  0  0  0
  9 30  1  0  0  0  0
  9 31  1  0  0  0  0
  9 32  1  0  0  0  0
  5 33  1  0  0  0  0
  5 34  1  0  0  0  0
  6 35  1  0  0  0  0
  6 36  1  0  0  0  0
 10 37  1  0  0  0  0
 10 38  1  0  0  0  0
 10 39  1  0  0  0  0
M  END
$$$$
