C6H6Cl6
APtclcactv12211716523D 0   0.00000     0.00000
 
 18 18  0  0  0  0  0  0  0  0999 V2000
   -0.5671    1.4454   -0.5478 C   0  0  0  0  0  0  0  0  0  0  0  0
    0.9489    1.2745   -0.4314 C   0  0  0  0  0  0  0  0  0  0  0  0
    1.2816    0.5505    0.8748 C   0  0  0  0  0  0  0  0  0  0  0  0
    0.6115   -0.8249    0.8805 C   0  0  0  0  0  0  0  0  0  0  0  0
   -0.9045   -0.6540    0.7640 C   0  0  0  0  0  0  0  0  0  0  0  0
   -1.2373    0.0700   -0.5421 C   0  0  0  0  0  0  0  0  0  0  0  0
   -3.0237    0.2713   -0.6793 Cl  0  0  0  0  0  0  0  0  0  0  0  0
   -1.6943   -2.2748    0.7708 Cl  0  0  0  0  0  0  0  0  0  0  0  0
    1.2160   -1.7938   -0.5146 Cl  0  0  0  0  0  0  0  0  0  0  0  0
    3.0681    0.3492    1.0120 Cl  0  0  0  0  0  0  0  0  0  0  0  0
    1.5534    0.3056   -1.8265 Cl  0  0  0  0  0  0  0  0  0  0  0  0
   -1.1716    2.4144    0.8473 Cl  0  0  0  0  0  0  0  0  0  0  0  0
   -0.8042    1.9612   -1.4784 H   0  0  0  0  0  0  0  0  0  0  0  0
    1.4263    2.2544   -0.4355 H   0  0  0  0  0  0  0  0  0  0  0  0
    0.9162    1.1363    1.7182 H   0  0  0  0  0  0  0  0  0  0  0  0
    0.8485   -1.3407    1.8110 H   0  0  0  0  0  0  0  0  0  0  0  0
   -1.2700   -0.0682    1.6075 H   0  0  0  0  0  0  0  0  0  0  0  0
   -0.8718   -0.5158   -1.3855 H   0  0  0  0  0  0  0  0  0  0  0  0
  6  7  1  0  0  0  0
  5  8  1  0  0  0  0
  4  9  1  0  0  0  0
  3 10  1  0  0  0  0
  2 11  1  0  0  0  0
  1 12  1  0  0  0  0
  1  2  1  0  0  0  0
  1  6  1  0  0  0  0
  2  3  1  0  0  0  0
  3  4  1  0  0  0  0
  4  5  1  0  0  0  0
  5  6  1  0  0  0  0
  1 13  1  0  0  0  0
  2 14  1  0  0  0  0
  3 15  1  0  0  0  0
  4 16  1  0  0  0  0
  5 17  1  0  0  0  0
  6 18  1  0  0  0  0
M  END
$$$$
