C8H9NO2
APtclcactv12151716143D 0   0.00000     0.00000
 
 20 20  0  0  0  0  0  0  0  0999 V2000
    1.4835   -0.9618   -0.0212 N   0  0  0  0  0  0  0  0  0  0  0  0
    0.1670   -0.9537   -0.0183 C   0  0  0  0  0  0  0  0  0  0  0  0
   -0.5353    0.2527    0.0088 C   0  0  0  0  0  0  0  0  0  0  0  0
    0.1844    1.4536    0.0333 C   0  0  0  0  0  0  0  0  0  0  0  0
    1.5668    1.3898    0.0295 C   0  0  0  0  0  0  0  0  0  0  0  0
    2.1875    0.1541    0.0015 C   0  0  0  0  0  0  0  0  0  0  0  0
    3.6927    0.0808   -0.0027 C   0  0  0  0  0  0  0  0  0  0  0  0
   -2.0125    0.2620    0.0111 C   0  0  0  0  0  0  0  0  0  0  0  0
   -2.6263   -0.7821    0.1037 O   0  0  0  0  0  0  0  0  0  0  0  0
   -2.6788    1.4284   -0.0896 O   0  0  0  0  0  0  0  0  0  0  0  0
   -0.5883   -2.2575   -0.0449 C   0  0  0  0  0  0  0  0  0  0  0  0
   -0.3261    2.4051    0.0542 H   0  0  0  0  0  0  0  0  0  0  0  0
    2.1549    2.2955    0.0475 H   0  0  0  0  0  0  0  0  0  0  0  0
    4.0574    0.0408    1.0237 H   0  0  0  0  0  0  0  0  0  0  0  0
    4.0115   -0.8143   -0.5367 H   0  0  0  0  0  0  0  0  0  0  0  0
    4.0981    0.9631   -0.4981 H   0  0  0  0  0  0  0  0  0  0  0  0
   -3.6448    1.3841   -0.0837 H   0  0  0  0  0  0  0  0  0  0  0  0
   -0.8699   -2.5350    0.9709 H   0  0  0  0  0  0  0  0  0  0  0  0
   -1.4860   -2.1450   -0.6529 H   0  0  0  0  0  0  0  0  0  0  0  0
    0.0447   -3.0354   -0.4719 H   0  0  0  0  0  0  0  0  0  0  0  0
  1  2  2  0  0  0  0
  2  3  1  0  0  0  0
  3  4  2  0  0  0  0
  4  5  1  0  0  0  0
  5  6  2  0  0  0  0
  1  6  1  0  0  0  0
  6  7  1  0  0  0  0
  3  8  1  0  0  0  0
  8  9  2  0  0  0  0
  8 10  1  0  0  0  0
  2 11  1  0  0  0  0
  4 12  1  0  0  0  0
  5 13  1  0  0  0  0
  7 14  1  0  0  0  0
  7 15  1  0  0  0  0
  7 16  1  0  0  0  0
 10 17  1  0  0  0  0
 11 18  1  0  0  0  0
 11 19  1  0  0  0  0
 11 20  1  0  0  0  0
M  END
$$$$
