C6H14N2O2
APtclcactv12211717003D 0   0.00000     0.00000
 
 24 23  0  0  1  0  0  0  0  0999 V2000
    1.3875    1.7940    0.1913 N   0  0  0  0  0  0  0  0  0  0  0  0
    1.3579    0.3542    0.4809 C   0  0  1  0  0  0  0  0  0  0  0  0
    1.2798    0.2016    1.5573 H   0  0  0  0  0  0  0  0  0  0  0  0
    0.1514   -0.2810   -0.2132 C   0  0  0  0  0  0  0  0  0  0  0  0
   -1.1378    0.2798    0.3904 C   0  0  0  0  0  0  0  0  0  0  0  0
   -2.3443   -0.3554   -0.3036 C   0  0  0  0  0  0  0  0  0  0  0  0
   -3.6335    0.2054    0.3000 C   0  0  0  0  0  0  0  0  0  0  0  0
   -4.7920   -0.4045   -0.3664 N   0  0  0  0  0  0  0  0  0  0  0  0
    2.6241   -0.2864   -0.0267 C   0  0  0  0  0  0  0  0  0  0  0  0
    3.2876    0.2710   -0.8687 O   0  0  0  0  0  0  0  0  0  0  0  0
    3.0148   -1.4761    0.4567 O   0  0  0  0  0  0  0  0  0  0  0  0
    1.4597    1.9619   -0.8011 H   0  0  0  0  0  0  0  0  0  0  0  0
    0.5791    2.2574    0.5785 H   0  0  0  0  0  0  0  0  0  0  0  0
    0.1832   -0.0525   -1.2785 H   0  0  0  0  0  0  0  0  0  0  0  0
    0.1785   -1.3615   -0.0724 H   0  0  0  0  0  0  0  0  0  0  0  0
   -1.1696    0.0513    1.4558 H   0  0  0  0  0  0  0  0  0  0  0  0
   -1.1649    1.3603    0.2496 H   0  0  0  0  0  0  0  0  0  0  0  0
   -2.3125   -0.1269   -1.3689 H   0  0  0  0  0  0  0  0  0  0  0  0
   -2.3172   -1.4359   -0.1628 H   0  0  0  0  0  0  0  0  0  0  0  0
   -3.6653   -0.0231    1.3653 H   0  0  0  0  0  0  0  0  0  0  0  0
   -3.6606    1.2859    0.1592 H   0  0  0  0  0  0  0  0  0  0  0  0
   -4.7556   -1.4110   -0.3055 H   0  0  0  0  0  0  0  0  0  0  0  0
   -5.6563   -0.0501    0.0149 H   0  0  0  0  0  0  0  0  0  0  0  0
    3.8337   -1.8472    0.1006 H   0  0  0  0  0  0  0  0  0  0  0  0
  1  2  1  0  0  0  0
  2  3  1  0  0  0  0
  2  4  1  0  0  0  0
  4  5  1  0  0  0  0
  5  6  1  0  0  0  0
  6  7  1  0  0  0  0
  7  8  1  0  0  0  0
  2  9  1  0  0  0  0
  9 10  2  0  0  0  0
  9 11  1  0  0  0  0
  1 12  1  0  0  0  0
  1 13  1  0  0  0  0
  4 14  1  0  0  0  0
  4 15  1  0  0  0  0
  5 16  1  0  0  0  0
  5 17  1  0  0  0  0
  6 18  1  0  0  0  0
  6 19  1  0  0  0  0
  7 20  1  0  0  0  0
  7 21  1  0  0  0  0
  8 22  1  0  0  0  0
  8 23  1  0  0  0  0
 11 24  1  0  0  0  0
M  END
$$$$
