C9H7NOS
APtclcactv12151716423D 0   0.00000     0.00000
 
 19 19  0  0  0  0  0  0  0  0999 V2000
   -3.1556    0.4584   -0.0017 C   0  0  0  0  0  0  0  0  0  0  0  0
   -4.3286   -0.4878   -0.0019 C   0  0  0  0  0  0  0  0  0  0  0  0
   -3.3430    1.6563    0.0033 O   0  0  0  0  0  0  0  0  0  0  0  0
   -1.7819   -0.0719   -0.0015 C   0  0  0  0  0  0  0  0  0  0  0  0
   -0.6984    0.7999   -0.0013 C   0  0  0  0  0  0  0  0  0  0  0  0
    0.6161    0.2729   -0.0007 C   0  0  0  0  0  0  0  0  0  0  0  0
    0.8043   -1.1330   -0.0002 C   0  0  0  0  0  0  0  0  0  0  0  0
   -0.2746   -1.9680   -0.0008 C   0  0  0  0  0  0  0  0  0  0  0  0
   -1.5633   -1.4585    0.0044 C   0  0  0  0  0  0  0  0  0  0  0  0
    1.6622    1.0869   -0.0009 N   0  0  0  0  0  0  0  0  0  0  0  0
    2.8202    0.6163   -0.0003 C   0  0  0  0  0  0  0  0  0  0  0  0
    4.2595    0.0315    0.0005 S   0  0  0  0  0  0  0  0  0  0  0  0
   -5.2566    0.0839    0.0029 H   0  0  0  0  0  0  0  0  0  0  0  0
   -4.2913   -1.1125   -0.8944 H   0  0  0  0  0  0  0  0  0  0  0  0
   -4.2862   -1.1192    0.8856 H   0  0  0  0  0  0  0  0  0  0  0  0
   -0.8578    1.8681   -0.0021 H   0  0  0  0  0  0  0  0  0  0  0  0
    1.8033   -1.5431    0.0004 H   0  0  0  0  0  0  0  0  0  0  0  0
   -0.1227   -3.0372   -0.0011 H   0  0  0  0  0  0  0  0  0  0  0  0
   -2.4062   -2.1337    0.0037 H   0  0  0  0  0  0  0  0  0  0  0  0
  1  2  1  0  0  0  0
  1  3  2  0  0  0  0
  1  4  1  0  0  0  0
  4  5  1  0  0  0  0
  5  6  2  0  0  0  0
  6  7  1  0  0  0  0
  7  8  2  0  0  0  0
  8  9  1  0  0  0  0
  4  9  2  0  0  0  0
  6 10  1  0  0  0  0
 10 11  2  0  0  0  0
 11 12  2  0  0  0  0
  2 13  1  0  0  0  0
  2 14  1  0  0  0  0
  2 15  1  0  0  0  0
  5 16  1  0  0  0  0
  7 17  1  0  0  0  0
  8 18  1  0  0  0  0
  9 19  1  0  0  0  0
M  END
$$$$
