C9H8N2OS
APtclcactv12151716423D 0   0.00000     0.00000
 
 21 21  0  0  0  0  0  0  0  0999 V2000
   -3.3357   -0.6479   -0.0932 C   0  0  0  0  0  0  0  0  0  0  0  0
   -4.7898   -0.9450    0.1678 C   0  0  0  0  0  0  0  0  0  0  0  0
   -2.6461   -1.4582   -0.6754 O   0  0  0  0  0  0  0  0  0  0  0  0
   -2.8028    0.5207    0.3153 N   0  0  0  0  0  0  0  0  0  0  0  0
   -1.4309    0.7527    0.1699 C   0  0  0  0  0  0  0  0  0  0  0  0
   -0.5392   -0.2938    0.2844 C   0  0  0  0  0  0  0  0  0  0  0  0
    0.8477   -0.0470    0.1353 C   0  0  0  0  0  0  0  0  0  0  0  0
    1.2958    1.2731   -0.1295 C   0  0  0  0  0  0  0  0  0  0  0  0
    0.3924    2.2886   -0.2378 C   0  0  0  0  0  0  0  0  0  0  0  0
   -0.9662    2.0420   -0.0967 C   0  0  0  0  0  0  0  0  0  0  0  0
    1.7188   -1.0399    0.2425 N   0  0  0  0  0  0  0  0  0  0  0  0
    2.9413   -0.8159    0.1099 C   0  0  0  0  0  0  0  0  0  0  0  0
    4.4608   -0.5374   -0.0549 S   0  0  0  0  0  0  0  0  0  0  0  0
   -4.8908   -1.4494    1.1288 H   0  0  0  0  0  0  0  0  0  0  0  0
   -5.3537   -0.0124    0.1859 H   0  0  0  0  0  0  0  0  0  0  0  0
   -5.1768   -1.5883   -0.6226 H   0  0  0  0  0  0  0  0  0  0  0  0
   -3.3705    1.2009    0.7101 H   0  0  0  0  0  0  0  0  0  0  0  0
   -0.8957   -1.2930    0.4866 H   0  0  0  0  0  0  0  0  0  0  0  0
    2.3508    1.4731   -0.2447 H   0  0  0  0  0  0  0  0  0  0  0  0
    0.7365    3.2923   -0.4393 H   0  0  0  0  0  0  0  0  0  0  0  0
   -1.6698    2.8565   -0.1854 H   0  0  0  0  0  0  0  0  0  0  0  0
  1  2  1  0  0  0  0
  1  3  2  0  0  0  0
  1  4  1  0  0  0  0
  4  5  1  0  0  0  0
  5  6  1  0  0  0  0
  6  7  2  0  0  0  0
  7  8  1  0  0  0  0
  8  9  2  0  0  0  0
  9 10  1  0  0  0  0
  5 10  2  0  0  0  0
  7 11  1  0  0  0  0
 11 12  2  0  0  0  0
 12 13  2  0  0  0  0
  2 14  1  0  0  0  0
  2 15  1  0  0  0  0
  2 16  1  0  0  0  0
  4 17  1  0  0  0  0
  6 18  1  0  0  0  0
  8 19  1  0  0  0  0
  9 20  1  0  0  0  0
 10 21  1  0  0  0  0
M  END
$$$$
