C7H5BrO2
APtclcactv12151716123D 0   0.00000     0.00000
 
 15 15  0  0  0  0  0  0  0  0999 V2000
   -2.4187    0.4117   -0.0001 Br  0  0  0  0  0  0  0  0  0  0  0  0
   -0.6978   -0.3721   -0.0009 C   0  0  0  0  0  0  0  0  0  0  0  0
    0.4251    0.4312   -0.0006 C   0  0  0  0  0  0  0  0  0  0  0  0
    1.6945   -0.1497   -0.0007 C   0  0  0  0  0  0  0  0  0  0  0  0
    2.9006    0.7033    0.0002 C   0  0  0  0  0  0  0  0  0  0  0  0
    2.7891    1.9129    0.0009 O   0  0  0  0  0  0  0  0  0  0  0  0
    4.1242    0.1398    0.0001 O   0  0  0  0  0  0  0  0  0  0  0  0
    1.8192   -1.5406   -0.0011 C   0  0  0  0  0  0  0  0  0  0  0  0
    0.6893   -2.3315   -0.0014 C   0  0  0  0  0  0  0  0  0  0  0  0
   -0.5663   -1.7501    0.0040 C   0  0  0  0  0  0  0  0  0  0  0  0
    0.3217    1.5062   -0.0006 H   0  0  0  0  0  0  0  0  0  0  0  0
    4.8834    0.7387    0.0006 H   0  0  0  0  0  0  0  0  0  0  0  0
    2.7985   -1.9960   -0.0015 H   0  0  0  0  0  0  0  0  0  0  0  0
    0.7848   -3.4073   -0.0017 H   0  0  0  0  0  0  0  0  0  0  0  0
   -1.4478   -2.3742    0.0037 H   0  0  0  0  0  0  0  0  0  0  0  0
  1  2  1  0  0  0  0
  2  3  1  0  0  0  0
  3  4  2  0  0  0  0
  4  5  1  0  0  0  0
  5  6  2  0  0  0  0
  5  7  1  0  0  0  0
  4  8  1  0  0  0  0
  8  9  2  0  0  0  0
  9 10  1  0  0  0  0
  2 10  2  0  0  0  0
  3 11  1  0  0  0  0
  7 12  1  0  0  0  0
  8 13  1  0  0  0  0
  9 14  1  0  0  0  0
 10 15  1  0  0  0  0
M  END
$$$$
