C7H7Br
APtclcactv12151716163D 0   0.00000     0.00000
 
 15 15  0  0  0  0  0  0  0  0999 V2000
   -1.8846    0.1873   -0.0003 Br  0  0  0  0  0  0  0  0  0  0  0  0
   -0.0358   -0.2102   -0.0005 C   0  0  0  0  0  0  0  0  0  0  0  0
    0.8925    0.8156    0.0002 C   0  0  0  0  0  0  0  0  0  0  0  0
    2.2435    0.5247    0.0000 C   0  0  0  0  0  0  0  0  0  0  0  0
    2.6674   -0.7914   -0.0013 C   0  0  0  0  0  0  0  0  0  0  0  0
    1.7404   -1.8165   -0.0021 C   0  0  0  0  0  0  0  0  0  0  0  0
    0.3887   -1.5264    0.0044 C   0  0  0  0  0  0  0  0  0  0  0  0
    3.2547    1.6420    0.0008 C   0  0  0  0  0  0  0  0  0  0  0  0
    0.5614    1.8436    0.0006 H   0  0  0  0  0  0  0  0  0  0  0  0
    3.7233   -1.0184   -0.0022 H   0  0  0  0  0  0  0  0  0  0  0  0
    2.0720   -2.8444   -0.0035 H   0  0  0  0  0  0  0  0  0  0  0  0
   -0.3356   -2.3275    0.0042 H   0  0  0  0  0  0  0  0  0  0  0  0
    3.4986    1.9106    1.0286 H   0  0  0  0  0  0  0  0  0  0  0  0
    4.1584    1.3145   -0.5133 H   0  0  0  0  0  0  0  0  0  0  0  0
    2.8387    2.5089   -0.5125 H   0  0  0  0  0  0  0  0  0  0  0  0
  1  2  1  0  0  0  0
  2  3  1  0  0  0  0
  3  4  2  0  0  0  0
  4  5  1  0  0  0  0
  5  6  2  0  0  0  0
  6  7  1  0  0  0  0
  2  7  2  0  0  0  0
  4  8  1  0  0  0  0
  3  9  1  0  0  0  0
  5 10  1  0  0  0  0
  6 11  1  0  0  0  0
  7 12  1  0  0  0  0
  8 13  1  0  0  0  0
  8 14  1  0  0  0  0
  8 15  1  0  0  0  0
M  END
$$$$
