C6H6ClN
APtclcactv12211716523D 0   0.00000     0.00000
 
 14 14  0  0  0  0  0  0  0  0999 V2000
   -2.4199    0.4383   -0.0005 Cl  0  0  0  0  0  0  0  0  0  0  0  0
   -0.7601   -0.0703   -0.0007 C   0  0  0  0  0  0  0  0  0  0  0  0
    0.2512    0.8722   -0.0000 C   0  0  0  0  0  0  0  0  0  0  0  0
    1.5784    0.4639   -0.0003 C   0  0  0  0  0  0  0  0  0  0  0  0
    2.6027    1.4134    0.0009 N   0  0  0  0  0  0  0  0  0  0  0  0
    1.8854   -0.8912   -0.0012 C   0  0  0  0  0  0  0  0  0  0  0  0
    0.8708   -1.8279   -0.0018 C   0  0  0  0  0  0  0  0  0  0  0  0
   -0.4502   -1.4190    0.0041 C   0  0  0  0  0  0  0  0  0  0  0  0
    0.0093    1.9248    0.0003 H   0  0  0  0  0  0  0  0  0  0  0  0
    2.3873    2.3592    0.0018 H   0  0  0  0  0  0  0  0  0  0  0  0
    3.5295    1.1271    0.0007 H   0  0  0  0  0  0  0  0  0  0  0  0
    2.9168   -1.2117   -0.0017 H   0  0  0  0  0  0  0  0  0  0  0  0
    1.1093   -2.8813   -0.0029 H   0  0  0  0  0  0  0  0  0  0  0  0
   -1.2418   -2.1538    0.0036 H   0  0  0  0  0  0  0  0  0  0  0  0
  1  2  1  0  0  0  0
  2  3  1  0  0  0  0
  3  4  2  0  0  0  0
  4  5  1  0  0  0  0
  4  6  1  0  0  0  0
  6  7  2  0  0  0  0
  7  8  1  0  0  0  0
  2  8  2  0  0  0  0
  3  9  1  0  0  0  0
  5 10  1  0  0  0  0
  5 11  1  0  0  0  0
  6 12  1  0  0  0  0
  7 13  1  0  0  0  0
  8 14  1  0  0  0  0
M  END
$$$$
