C7H8O
APtclcactv12151716183D 0   0.00000     0.00000
 
 16 16  0  0  0  0  0  0  0  0999 V2000
   -0.0306   -0.9842   -0.0159 C   0  0  0  0  0  0  0  0  0  0  0  0
   -1.2200   -0.2821    0.0003 C   0  0  0  0  0  0  0  0  0  0  0  0
   -1.2080    1.1006    0.0114 C   0  0  0  0  0  0  0  0  0  0  0  0
   -0.0061    1.7838    0.0064 C   0  0  0  0  0  0  0  0  0  0  0  0
    1.1864    1.0862   -0.0102 C   0  0  0  0  0  0  0  0  0  0  0  0
    1.1770   -0.3009   -0.0209 C   0  0  0  0  0  0  0  0  0  0  0  0
    2.3486   -0.9894   -0.0369 O   0  0  0  0  0  0  0  0  0  0  0  0
   -2.5319   -1.0237    0.0053 C   0  0  0  0  0  0  0  0  0  0  0  0
   -0.0405   -2.0641   -0.0201 H   0  0  0  0  0  0  0  0  0  0  0  0
   -2.1390    1.6478    0.0237 H   0  0  0  0  0  0  0  0  0  0  0  0
    0.0007    2.8637    0.0151 H   0  0  0  0  0  0  0  0  0  0  0  0
    2.1250    1.6203   -0.0149 H   0  0  0  0  0  0  0  0  0  0  0  0
    2.6956   -1.1955    0.8419 H   0  0  0  0  0  0  0  0  0  0  0  0
   -2.8394   -1.2111    1.0341 H   0  0  0  0  0  0  0  0  0  0  0  0
   -3.2905   -0.4234   -0.4969 H   0  0  0  0  0  0  0  0  0  0  0  0
   -2.4148   -1.9729   -0.5176 H   0  0  0  0  0  0  0  0  0  0  0  0
  1  2  2  0  0  0  0
  2  3  1  0  0  0  0
  3  4  2  0  0  0  0
  4  5  1  0  0  0  0
  5  6  2  0  0  0  0
  1  6  1  0  0  0  0
  6  7  1  0  0  0  0
  2  8  1  0  0  0  0
  1  9  1  0  0  0  0
  3 10  1  0  0  0  0
  4 11  1  0  0  0  0
  5 12  1  0  0  0  0
  7 13  1  0  0  0  0
  8 14  1  0  0  0  0
  8 15  1  0  0  0  0
  8 16  1  0  0  0  0
M  END
$$$$
