C8H8O3
APtclcactv12151716293D 0   0.00000     0.00000
 
 19 19  0  0  0  0  0  0  0  0999 V2000
   -0.5404    0.2492    0.0070 C   0  0  0  0  0  0  0  0  0  0  0  0
    0.1341   -0.9803    0.0178 C   0  0  0  0  0  0  0  0  0  0  0  0
   -0.5664   -2.1417    0.0311 O   0  0  0  0  0  0  0  0  0  0  0  0
    1.5206   -1.0031    0.0145 C   0  0  0  0  0  0  0  0  0  0  0  0
    2.2325    0.1801    0.0010 C   0  0  0  0  0  0  0  0  0  0  0  0
    3.7391    0.1476   -0.0026 C   0  0  0  0  0  0  0  0  0  0  0  0
    1.5702    1.3967   -0.0098 C   0  0  0  0  0  0  0  0  0  0  0  0
    0.1927    1.4386   -0.0071 C   0  0  0  0  0  0  0  0  0  0  0  0
   -2.0139    0.2864    0.0043 C   0  0  0  0  0  0  0  0  0  0  0  0
   -2.6478   -0.7502    0.0115 O   0  0  0  0  0  0  0  0  0  0  0  0
   -2.6579    1.4699   -0.0061 O   0  0  0  0  0  0  0  0  0  0  0  0
   -0.7716   -2.4874   -0.8484 H   0  0  0  0  0  0  0  0  0  0  0  0
    2.0444   -1.9475    0.0228 H   0  0  0  0  0  0  0  0  0  0  0  0
    4.0997    0.1297   -1.0311 H   0  0  0  0  0  0  0  0  0  0  0  0
    4.1229    1.0346    0.5015 H   0  0  0  0  0  0  0  0  0  0  0  0
    4.0846   -0.7448    0.5192 H   0  0  0  0  0  0  0  0  0  0  0  0
    2.1359    2.3166   -0.0200 H   0  0  0  0  0  0  0  0  0  0  0  0
   -0.3194    2.3894   -0.0152 H   0  0  0  0  0  0  0  0  0  0  0  0
   -3.6246    1.4437   -0.0075 H   0  0  0  0  0  0  0  0  0  0  0  0
  1  2  1  0  0  0  0
  2  3  1  0  0  0  0
  2  4  2  0  0  0  0
  4  5  1  0  0  0  0
  5  6  1  0  0  0  0
  5  7  2  0  0  0  0
  7  8  1  0  0  0  0
  1  8  2  0  0  0  0
  1  9  1  0  0  0  0
  9 10  2  0  0  0  0
  9 11  1  0  0  0  0
  3 12  1  0  0  0  0
  4 13  1  0  0  0  0
  6 14  1  0  0  0  0
  6 15  1  0  0  0  0
  6 16  1  0  0  0  0
  7 17  1  0  0  0  0
  8 18  1  0  0  0  0
 11 19  1  0  0  0  0
M  END
$$$$
