C6H4N2O4
APtclcactv12211716493D 0   0.00000     0.00000
 
 16 16  0  0  0  0  0  0  0  0999 V2000
    2.4790   -0.5467    0.0008 N   0  3  0  0  0  0  0  0  0  0  0  0
    2.4790   -1.7647    0.0019 O   0  0  0  0  0  0  0  0  0  0  0  0
    3.5338    0.0623   -0.0047 O   0  5  0  0  0  0  0  0  0  0  0  0
    1.1972    0.1934    0.0001 C   0  0  0  0  0  0  0  0  0  0  0  0
    0.0000   -0.4978    0.0007 C   0  0  0  0  0  0  0  0  0  0  0  0
   -1.1971    0.1934    0.0000 C   0  0  0  0  0  0  0  0  0  0  0  0
   -1.1971    1.5758   -0.0007 C   0  0  0  0  0  0  0  0  0  0  0  0
   -0.0000    2.2669   -0.0004 C   0  0  0  0  0  0  0  0  0  0  0  0
    1.1971    1.5758    0.0047 C   0  0  0  0  0  0  0  0  0  0  0  0
   -2.4790   -0.5467   -0.0004 N   0  3  0  0  0  0  0  0  0  0  0  0
   -2.4790   -1.7647   -0.0001 O   0  0  0  0  0  0  0  0  0  0  0  0
   -3.5338    0.0623   -0.0010 O   0  5  0  0  0  0  0  0  0  0  0  0
    0.0000   -1.5778    0.0013 H   0  0  0  0  0  0  0  0  0  0  0  0
   -2.1325    2.1158   -0.0020 H   0  0  0  0  0  0  0  0  0  0  0  0
   -0.0000    3.3469   -0.0014 H   0  0  0  0  0  0  0  0  0  0  0  0
    2.1325    2.1158    0.0049 H   0  0  0  0  0  0  0  0  0  0  0  0
  1  2  2  0  0  0  0
  1  3  1  0  0  0  0
  1  4  1  0  0  0  0
  4  5  2  0  0  0  0
  5  6  1  0  0  0  0
  6  7  2  0  0  0  0
  7  8  1  0  0  0  0
  8  9  2  0  0  0  0
  4  9  1  0  0  0  0
  6 10  1  0  0  0  0
 10 11  2  0  0  0  0
 10 12  1  0  0  0  0
  5 13  1  0  0  0  0
  7 14  1  0  0  0  0
  8 15  1  0  0  0  0
  9 16  1  0  0  0  0
M  CHG  4   1   1   3  -1  10   1  12  -1
M  END
$$$$
