C7H6O2
APtclcactv12151716163D 0   0.00000     0.00000
 
 15 15  0  0  0  0  0  0  0  0999 V2000
    2.7164    1.0853   -0.0328 O   0  0  0  0  0  0  0  0  0  0  0  0
    1.5768    0.3448   -0.0192 C   0  0  0  0  0  0  0  0  0  0  0  0
    0.3435    0.9735   -0.0176 C   0  0  0  0  0  0  0  0  0  0  0  0
   -0.8256    0.2078   -0.0035 C   0  0  0  0  0  0  0  0  0  0  0  0
   -2.1413    0.8675   -0.0022 C   0  0  0  0  0  0  0  0  0  0  0  0
   -3.1539    0.2006    0.0100 O   0  0  0  0  0  0  0  0  0  0  0  0
   -0.7399   -1.1883    0.0088 C   0  0  0  0  0  0  0  0  0  0  0  0
    0.4950   -1.8020    0.0070 C   0  0  0  0  0  0  0  0  0  0  0  0
    1.6506   -1.0418   -0.0126 C   0  0  0  0  0  0  0  0  0  0  0  0
    3.0514    1.3077    0.8466 H   0  0  0  0  0  0  0  0  0  0  0  0
    0.2850    2.0518   -0.0268 H   0  0  0  0  0  0  0  0  0  0  0  0
   -2.2048    1.9456   -0.0121 H   0  0  0  0  0  0  0  0  0  0  0  0
   -1.6399   -1.7851    0.0200 H   0  0  0  0  0  0  0  0  0  0  0  0
    0.5602   -2.8799    0.0169 H   0  0  0  0  0  0  0  0  0  0  0  0
    2.6145   -1.5288   -0.0142 H   0  0  0  0  0  0  0  0  0  0  0  0
  1  2  1  0  0  0  0
  2  3  1  0  0  0  0
  3  4  2  0  0  0  0
  4  5  1  0  0  0  0
  5  6  2  0  0  0  0
  4  7  1  0  0  0  0
  7  8  2  0  0  0  0
  8  9  1  0  0  0  0
  2  9  2  0  0  0  0
  1 10  1  0  0  0  0
  3 11  1  0  0  0  0
  5 12  1  0  0  0  0
  7 13  1  0  0  0  0
  8 14  1  0  0  0  0
  9 15  1  0  0  0  0
M  END
$$$$
