C6H6N2O4S
APtclcactv12211716533D 0   0.00000     0.00000
 
 19 19  0  0  0  0  0  0  0  0999 V2000
    2.9547   -0.6535    0.0109 N   0  3  0  0  0  0  0  0  0  0  0  0
    2.8493   -1.8665   -0.0198 O   0  0  0  0  0  0  0  0  0  0  0  0
    4.0581   -0.1387    0.0438 O   0  5  0  0  0  0  0  0  0  0  0  0
    1.7421    0.1952    0.0022 C   0  0  0  0  0  0  0  0  0  0  0  0
    0.4897   -0.3890   -0.0409 C   0  0  0  0  0  0  0  0  0  0  0  0
   -0.6426    0.4035   -0.0491 C   0  0  0  0  0  0  0  0  0  0  0  0
   -0.5230    1.7804   -0.0138 C   0  0  0  0  0  0  0  0  0  0  0  0
    0.7289    2.3644    0.0302 C   0  0  0  0  0  0  0  0  0  0  0  0
    1.8615    1.5716    0.0428 C   0  0  0  0  0  0  0  0  0  0  0  0
   -2.2386   -0.3410   -0.1052 S   0  0  0  0  0  0  0  0  0  0  0  0
   -3.1177    0.6347   -0.6477 O   0  0  0  0  0  0  0  0  0  0  0  0
   -2.0603   -1.6298   -0.6765 O   0  0  0  0  0  0  0  0  0  0  0  0
   -2.7205   -0.5859    1.4601 N   0  0  0  0  0  0  0  0  0  0  0  0
    0.3963   -1.4646   -0.0685 H   0  0  0  0  0  0  0  0  0  0  0  0
   -1.4078    2.3997   -0.0209 H   0  0  0  0  0  0  0  0  0  0  0  0
    0.8224    3.4400    0.0574 H   0  0  0  0  0  0  0  0  0  0  0  0
    2.8398    2.0279    0.0772 H   0  0  0  0  0  0  0  0  0  0  0  0
   -2.1409   -0.3246    2.1925 H   0  0  0  0  0  0  0  0  0  0  0  0
   -3.5825   -0.9908    1.6444 H   0  0  0  0  0  0  0  0  0  0  0  0
  1  2  2  0  0  0  0
  1  3  1  0  0  0  0
  1  4  1  0  0  0  0
  4  5  1  0  0  0  0
  5  6  2  0  0  0  0
  6  7  1  0  0  0  0
  7  8  2  0  0  0  0
  8  9  1  0  0  0  0
  4  9  2  0  0  0  0
  6 10  1  0  0  0  0
 10 11  2  0  0  0  0
 10 12  2  0  0  0  0
 10 13  1  0  0  0  0
  5 14  1  0  0  0  0
  7 15  1  0  0  0  0
  8 16  1  0  0  0  0
  9 17  1  0  0  0  0
 13 18  1  0  0  0  0
 13 19  1  0  0  0  0
M  CHG  2   1   1   3  -1
M  END
$$$$
