C7H9N
APtclcactv12151716193D 0   0.00000     0.00000
 
 17 17  0  0  0  0  0  0  0  0999 V2000
    2.3916    1.0182    0.0006 N   0  0  0  0  0  0  0  0  0  0  0  0
    1.1890    0.3078    0.0009 C   0  0  0  0  0  0  0  0  0  0  0  0
   -0.0216    0.9886    0.0002 C   0  0  0  0  0  0  0  0  0  0  0  0
   -1.2090    0.2830   -0.0000 C   0  0  0  0  0  0  0  0  0  0  0  0
   -1.1934   -1.0996    0.0010 C   0  0  0  0  0  0  0  0  0  0  0  0
    0.0104   -1.7807    0.0017 C   0  0  0  0  0  0  0  0  0  0  0  0
    1.2011   -1.0815   -0.0039 C   0  0  0  0  0  0  0  0  0  0  0  0
   -2.5230    1.0208   -0.0008 C   0  0  0  0  0  0  0  0  0  0  0  0
    2.3819    1.9882   -0.0001 H   0  0  0  0  0  0  0  0  0  0  0  0
    3.2364    0.5416    0.0051 H   0  0  0  0  0  0  0  0  0  0  0  0
   -0.0345    2.0685    0.0001 H   0  0  0  0  0  0  0  0  0  0  0  0
   -2.1232   -1.6489    0.0016 H   0  0  0  0  0  0  0  0  0  0  0  0
    0.0190   -2.8607    0.0028 H   0  0  0  0  0  0  0  0  0  0  0  0
    2.1407   -1.6139   -0.0037 H   0  0  0  0  0  0  0  0  0  0  0  0
   -2.8394    1.1983   -1.0286 H   0  0  0  0  0  0  0  0  0  0  0  0
   -3.2758    0.4229    0.5130 H   0  0  0  0  0  0  0  0  0  0  0  0
   -2.4043    1.9749    0.5127 H   0  0  0  0  0  0  0  0  0  0  0  0
  1  2  1  0  0  0  0
  2  3  2  0  0  0  0
  3  4  1  0  0  0  0
  4  5  2  0  0  0  0
  5  6  1  0  0  0  0
  6  7  2  0  0  0  0
  2  7  1  0  0  0  0
  4  8  1  0  0  0  0
  1  9  1  0  0  0  0
  1 10  1  0  0  0  0
  3 11  1  0  0  0  0
  5 12  1  0  0  0  0
  6 13  1  0  0  0  0
  7 14  1  0  0  0  0
  8 15  1  0  0  0  0
  8 16  1  0  0  0  0
  8 17  1  0  0  0  0
M  END
$$$$
