C10H19O6PS2
APtclcactv12211717293D 0   0.00000     0.00000
 
 38 37  0  0  0  0  0  0  0  0999 V2000
    1.8741   -1.2210   -0.2214 C   0  0  0  0  0  0  0  0  0  0  0  0
   -1.6571   -3.6997   -0.1670 C   0  0  0  0  0  0  0  0  0  0  0  0
    5.0936    0.7039    0.3012 C   0  0  0  0  0  0  0  0  0  0  0  0
   -0.1834    2.9304   -1.5133 C   0  0  0  0  0  0  0  0  0  0  0  0
   -3.7007   -0.3199    0.6952 C   0  0  0  0  0  0  0  0  0  0  0  0
   -1.7605   -4.6578    1.0214 C   0  0  0  0  0  0  0  0  0  0  0  0
    6.4866    0.1785    0.6541 C   0  0  0  0  0  0  0  0  0  0  0  0
   -1.0839   -1.7867   -1.8587 O   0  0  0  0  0  0  0  0  0  0  0  0
    2.5630    1.0314   -0.2812 O   0  0  0  0  0  0  0  0  0  0  0  0
   -0.4790   -1.7318   -0.8143 C   0  0  0  0  0  0  0  0  0  0  0  0
    2.8929   -0.1171   -0.1022 C   0  0  0  0  0  0  0  0  0  0  0  0
   -1.3590    2.1279   -1.3869 O   0  0  0  0  0  0  0  0  0  0  0  0
   -2.9083    0.2867   -0.3277 O   0  0  0  0  0  0  0  0  0  0  0  0
   -0.6891   -2.6598    0.1326 O   0  0  0  0  0  0  0  0  0  0  0  0
    4.1669   -0.4096    0.2030 O   0  0  0  0  0  0  0  0  0  0  0  0
    0.5114   -0.6215   -0.5745 C   0  0  0  0  0  0  0  0  0  0  0  0
   -1.7683    1.3813   -0.0205 P   0  0  0  0  0  0  0  0  0  0  0  0
   -0.0653    0.4178    0.7958 S   0  0  0  0  0  0  0  0  0  0  0  0
   -2.4193    2.6307    1.1993 S   0  0  0  0  0  0  0  0  0  0  0  0
    0.6036   -0.0159   -1.4761 H   0  0  0  0  0  0  0  0  0  0  0  0
    2.1799   -1.9146   -1.0047 H   0  0  0  0  0  0  0  0  0  0  0  0
    1.8021   -1.7531    0.7272 H   0  0  0  0  0  0  0  0  0  0  0  0
   -0.0766    3.2580   -2.5474 H   0  0  0  0  0  0  0  0  0  0  0  0
   -0.2663    3.8013   -0.8630 H   0  0  0  0  0  0  0  0  0  0  0  0
    0.6894    2.3441   -1.2259 H   0  0  0  0  0  0  0  0  0  0  0  0
   -3.0510   -0.8494    1.3920 H   0  0  0  0  0  0  0  0  0  0  0  0
   -4.2557    0.4509    1.2300 H   0  0  0  0  0  0  0  0  0  0  0  0
   -4.3998   -1.0238    0.2437 H   0  0  0  0  0  0  0  0  0  0  0  0
   -1.3365   -4.2508   -1.0511 H   0  0  0  0  0  0  0  0  0  0  0  0
   -2.6307   -3.2468   -0.3543 H   0  0  0  0  0  0  0  0  0  0  0  0
    4.7564    1.3898    1.0784 H   0  0  0  0  0  0  0  0  0  0  0  0
    5.1341    1.2282   -0.6535 H   0  0  0  0  0  0  0  0  0  0  0  0
   -2.4872   -5.4385    0.7966 H   0  0  0  0  0  0  0  0  0  0  0  0
   -0.7869   -5.1107    1.2087 H   0  0  0  0  0  0  0  0  0  0  0  0
   -2.0810   -4.1068    1.9056 H   0  0  0  0  0  0  0  0  0  0  0  0
    6.4461   -0.3458    1.6088 H   0  0  0  0  0  0  0  0  0  0  0  0
    6.8238   -0.5073   -0.1231 H   0  0  0  0  0  0  0  0  0  0  0  0
    7.1822    1.0144    0.7278 H   0  0  0  0  0  0  0  0  0  0  0  0
 17 18  1  0  0  0  0
 16 18  1  0  0  0  0
 17 19  2  0  0  0  0
 12 17  1  0  0  0  0
 13 17  1  0  0  0  0
  4 12  1  0  0  0  0
  5 13  1  0  0  0  0
 10 14  1  0  0  0  0
  2 14  1  0  0  0  0
  8 10  2  0  0  0  0
 11 15  1  0  0  0  0
  3 15  1  0  0  0  0
  9 11  2  0  0  0  0
 10 16  1  0  0  0  0
  1 16  1  0  0  0  0
  1 11  1  0  0  0  0
  2  6  1  0  0  0  0
  3  7  1  0  0  0  0
 16 20  1  0  0  0  0
  1 21  1  0  0  0  0
  1 22  1  0  0  0  0
  4 23  1  0  0  0  0
  4 24  1  0  0  0  0
  4 25  1  0  0  0  0
  5 26  1  0  0  0  0
  5 27  1  0  0  0  0
  5 28  1  0  0  0  0
  2 29  1  0  0  0  0
  2 30  1  0  0  0  0
  3 31  1  0  0  0  0
  3 32  1  0  0  0  0
  6 33  1  0  0  0  0
  6 34  1  0  0  0  0
  6 35  1  0  0  0  0
  7 36  1  0  0  0  0
  7 37  1  0  0  0  0
  7 38  1  0  0  0  0
M  END
$$$$
