C4H4O4
APtclcactv12211716373D 0   0.00000     0.00000
 
 12 11  0  0  0  0  0  0  0  0999 V2000
   -1.4437   -0.0002   -0.1192 C   0  0  0  0  0  0  0  0  0  0  0  0
   -0.6668   -1.2337    0.1101 C   0  0  0  0  0  0  0  0  0  0  0  0
    0.6608   -1.2386   -0.0927 C   0  0  0  0  0  0  0  0  0  0  0  0
    1.4446   -0.0070    0.1227 C   0  0  0  0  0  0  0  0  0  0  0  0
    0.9210    0.9656    0.6275 O   0  0  0  0  0  0  0  0  0  0  0  0
    2.7414    0.0385   -0.2406 O   0  0  0  0  0  0  0  0  0  0  0  0
   -0.9035    0.9782   -0.5943 O   0  0  0  0  0  0  0  0  0  0  0  0
   -2.7539    0.0388    0.1934 O   0  0  0  0  0  0  0  0  0  0  0  0
   -1.1659   -2.1325    0.4410 H   0  0  0  0  0  0  0  0  0  0  0  0
    1.1547   -2.1438   -0.4135 H   0  0  0  0  0  0  0  0  0  0  0  0
    3.2137    0.8669   -0.0796 H   0  0  0  0  0  0  0  0  0  0  0  0
   -3.2209    0.8687    0.0253 H   0  0  0  0  0  0  0  0  0  0  0  0
  1  2  1  0  0  0  0
  2  3  2  0  0  0  0
  3  4  1  0  0  0  0
  4  5  2  0  0  0  0
  4  6  1  0  0  0  0
  1  7  2  0  0  0  0
  1  8  1  0  0  0  0
  2  9  1  0  0  0  0
  3 10  1  0  0  0  0
  6 11  1  0  0  0  0
  8 12  1  0  0  0  0
M  END
$$$$
