C4H6N2O3
APtclcactv12211716363D 0   0.00000     0.00000
 
 15 14  0  0  0  0  0  0  0  0999 V2000
   -1.0261   -0.2647   -0.1138 C   0  0  0  0  0  0  0  0  0  0  0  0
   -0.0958   -1.3937    0.0877 C   0  0  0  0  0  0  0  0  0  0  0  0
    1.2201   -1.2241   -0.1176 C   0  0  0  0  0  0  0  0  0  0  0  0
    1.8404    0.0927    0.1227 C   0  0  0  0  0  0  0  0  0  0  0  0
    1.1987    0.9793    0.6492 O   0  0  0  0  0  0  0  0  0  0  0  0
    3.1191    0.3118   -0.2421 O   0  0  0  0  0  0  0  0  0  0  0  0
   -0.6177    0.7854   -0.5693 O   0  0  0  0  0  0  0  0  0  0  0  0
   -2.3293   -0.4006    0.2022 N   0  0  0  0  0  0  0  0  0  0  0  0
   -3.1898    0.6437    0.0158 N   0  0  0  0  0  0  0  0  0  0  0  0
   -0.4739   -2.3559    0.4003 H   0  0  0  0  0  0  0  0  0  0  0  0
    1.8245   -2.0516   -0.4586 H   0  0  0  0  0  0  0  0  0  0  0  0
    3.4819    1.1903   -0.0642 H   0  0  0  0  0  0  0  0  0  0  0  0
   -2.6560   -1.2401    0.5620 H   0  0  0  0  0  0  0  0  0  0  0  0
   -3.1709    0.9613   -0.9417 H   0  0  0  0  0  0  0  0  0  0  0  0
   -4.1267    0.3946    0.2957 H   0  0  0  0  0  0  0  0  0  0  0  0
  1  2  1  0  0  0  0
  2  3  2  0  0  0  0
  3  4  1  0  0  0  0
  4  5  2  0  0  0  0
  4  6  1  0  0  0  0
  1  7  2  0  0  0  0
  1  8  1  0  0  0  0
  8  9  1  0  0  0  0
  2 10  1  0  0  0  0
  3 11  1  0  0  0  0
  6 12  1  0  0  0  0
  8 13  1  0  0  0  0
  9 14  1  0  0  0  0
  9 15  1  0  0  0  0
M  END
$$$$
