C3H6N2O2
APtclcactv12101715373D 0   0.00000     0.00000
 
 13 12  0  0  0  0  0  0  0  0999 V2000
    1.2305   -0.0615   -0.0020 C   0  0  0  0  0  0  0  0  0  0  0  0
   -0.0000   -0.9316   -0.0018 C   0  0  0  0  0  0  0  0  0  0  0  0
   -1.2305   -0.0615    0.0001 C   0  0  0  0  0  0  0  0  0  0  0  0
   -1.1192    1.1462    0.0011 O   0  0  0  0  0  0  0  0  0  0  0  0
   -2.4546   -0.6255    0.0006 N   0  0  0  0  0  0  0  0  0  0  0  0
    1.1192    1.1462   -0.0008 O   0  0  0  0  0  0  0  0  0  0  0  0
    2.4546   -0.6255    0.0020 N   0  0  0  0  0  0  0  0  0  0  0  0
   -0.0008   -1.5601   -0.8923 H   0  0  0  0  0  0  0  0  0  0  0  0
    0.0008   -1.5617    0.8877 H   0  0  0  0  0  0  0  0  0  0  0  0
   -2.5436   -1.5914   -0.0002 H   0  0  0  0  0  0  0  0  0  0  0  0
   -3.2466   -0.0654    0.0018 H   0  0  0  0  0  0  0  0  0  0  0  0
    2.5435   -1.5914    0.0051 H   0  0  0  0  0  0  0  0  0  0  0  0
    3.2466   -0.0654    0.0019 H   0  0  0  0  0  0  0  0  0  0  0  0
  1  2  1  0  0  0  0
  2  3  1  0  0  0  0
  3  4  2  0  0  0  0
  3  5  1  0  0  0  0
  1  6  2  0  0  0  0
  1  7  1  0  0  0  0
  2  8  1  0  0  0  0
  2  9  1  0  0  0  0
  5 10  1  0  0  0  0
  5 11  1  0  0  0  0
  7 12  1  0  0  0  0
  7 13  1  0  0  0  0
M  END
$$$$
