C3H4O4
APtclcactv12101715363D 0   0.00000     0.00000
 
 11 10  0  0  0  0  0  0  0  0999 V2000
    1.2305   -0.0685   -0.0020 C   0  0  0  0  0  0  0  0  0  0  0  0
   -0.0000   -0.9386   -0.0017 C   0  0  0  0  0  0  0  0  0  0  0  0
   -1.2305   -0.0685    0.0000 C   0  0  0  0  0  0  0  0  0  0  0  0
   -1.1196    1.1346    0.0010 O   0  0  0  0  0  0  0  0  0  0  0  0
   -2.4496   -0.6302    0.0006 O   0  0  0  0  0  0  0  0  0  0  0  0
    1.1196    1.1346   -0.0009 O   0  0  0  0  0  0  0  0  0  0  0  0
    2.4496   -0.6302    0.0021 O   0  0  0  0  0  0  0  0  0  0  0  0
   -0.0007   -1.5672   -0.8922 H   0  0  0  0  0  0  0  0  0  0  0  0
    0.0007   -1.5686    0.8878 H   0  0  0  0  0  0  0  0  0  0  0  0
   -3.2088   -0.0313    0.0017 H   0  0  0  0  0  0  0  0  0  0  0  0
    3.2088   -0.0313    0.0018 H   0  0  0  0  0  0  0  0  0  0  0  0
  1  2  1  0  0  0  0
  2  3  1  0  0  0  0
  3  4  2  0  0  0  0
  3  5  1  0  0  0  0
  1  6  2  0  0  0  0
  1  7  1  0  0  0  0
  2  8  1  0  0  0  0
  2  9  1  0  0  0  0
  5 10  1  0  0  0  0
  7 11  1  0  0  0  0
M  END
$$$$
