C3H2N2
APtclcactv12101715353D 0   0.00000     0.00000
 
  7  6  0  0  0  0  0  0  0  0999 V2000
   -1.2019   -0.0785   -0.0000 C   0  0  0  0  0  0  0  0  0  0  0  0
    0.0000   -0.9284   -0.0000 C   0  0  0  0  0  0  0  0  0  0  0  0
    1.2019   -0.0785   -0.0000 C   0  0  0  0  0  0  0  0  0  0  0  0
    2.1294    0.5773    0.0000 N   0  0  0  0  0  0  0  0  0  0  0  0
   -2.1294    0.5773    0.0000 N   0  0  0  0  0  0  0  0  0  0  0  0
   -0.0000   -1.5577    0.8900 H   0  0  0  0  0  0  0  0  0  0  0  0
    0.0000   -1.5577   -0.8900 H   0  0  0  0  0  0  0  0  0  0  0  0
  1  2  1  0  0  0  0
  2  3  1  0  0  0  0
  3  4  3  0  0  0  0
  1  5  3  0  0  0  0
  2  6  1  0  0  0  0
  2  7  1  0  0  0  0
M  END
$$$$
