C6H6O3
APtclcactv12211716533D 0   0.00000     0.00000
 
 15 15  0  0  0  0  0  0  0  0999 V2000
    2.5273   -0.4774   -0.0007 C   0  0  0  0  0  0  0  0  0  0  0  0
   -0.5870   -2.5765    0.0022 H   0  0  0  0  0  0  0  0  0  0  0  0
   -2.2289   -0.8754   -0.0024 O   0  0  0  0  0  0  0  0  0  0  0  0
    0.2399   -2.0751    0.0012 O   0  0  0  0  0  0  0  0  0  0  0  0
   -1.2374   -0.1618    0.0013 C   0  0  0  0  0  0  0  0  0  0  0  0
    1.1364    0.1028   -0.0004 C   0  0  0  0  0  0  0  0  0  0  0  0
    0.0686   -0.7251    0.0005 C   0  0  0  0  0  0  0  0  0  0  0  0
    0.9747    1.4332   -0.0006 O   0  0  0  0  0  0  0  0  0  0  0  0
   -1.3564    1.2505    0.0015 C   0  0  0  0  0  0  0  0  0  0  0  0
   -0.2364    2.0014    0.0001 C   0  0  0  0  0  0  0  0  0  0  0  0
   -2.3298    1.7184    0.0017 H   0  0  0  0  0  0  0  0  0  0  0  0
   -0.3183    3.0782    0.0002 H   0  0  0  0  0  0  0  0  0  0  0  0
    3.2582    0.3312   -0.0011 H   0  0  0  0  0  0  0  0  0  0  0  0
    2.6650   -1.0913    0.8894 H   0  0  0  0  0  0  0  0  0  0  0  0
    2.6645   -1.0916   -0.8906 H   0  0  0  0  0  0  0  0  0  0  0  0
  5  9  1  0  0  0  0
  9 10  2  0  0  0  0
  5  7  1  0  0  0  0
  3  5  2  0  0  0  0
  8 10  1  0  0  0  0
  6  8  1  0  0  0  0
  6  7  2  0  0  0  0
  1  6  1  0  0  0  0
  4  7  1  0  0  0  0
  9 11  1  0  0  0  0
 10 12  1  0  0  0  0
  1 13  1  0  0  0  0
  1 14  1  0  0  0  0
  1 15  1  0  0  0  0
  2  4  1  0  0  0  0
M  END
$$$$
