C17H34O2
APtclcactv12211717153D 0   0.00000     0.00000
 
 53 52  0  0  0  0  0  0  0  0999 V2000
    8.8045    0.1858   -0.0010 C   0  0  0  0  0  0  0  0  0  0  0  0
    7.5609   -0.6655   -0.0012 C   0  0  0  0  0  0  0  0  0  0  0  0
    6.3252    0.2368   -0.0008 C   0  0  0  0  0  0  0  0  0  0  0  0
    5.0627   -0.6275   -0.0010 C   0  0  0  0  0  0  0  0  0  0  0  0
    3.8271    0.2748   -0.0005 C   0  0  0  0  0  0  0  0  0  0  0  0
    2.5645   -0.5895   -0.0008 C   0  0  0  0  0  0  0  0  0  0  0  0
    1.3289    0.3128   -0.0003 C   0  0  0  0  0  0  0  0  0  0  0  0
    0.0663   -0.5514   -0.0006 C   0  0  0  0  0  0  0  0  0  0  0  0
   -1.1693    0.3508   -0.0001 C   0  0  0  0  0  0  0  0  0  0  0  0
   -2.4319   -0.5134   -0.0004 C   0  0  0  0  0  0  0  0  0  0  0  0
   -3.6675    0.3888    0.0001 C   0  0  0  0  0  0  0  0  0  0  0  0
   -4.9300   -0.4754   -0.0001 C   0  0  0  0  0  0  0  0  0  0  0  0
   -6.1657    0.4268    0.0003 C   0  0  0  0  0  0  0  0  0  0  0  0
   -7.4282   -0.4374    0.0001 C   0  0  0  0  0  0  0  0  0  0  0  0
   -8.6639    0.4648    0.0005 C   0  0  0  0  0  0  0  0  0  0  0  0
   -9.9264   -0.3994    0.0003 C   0  0  0  0  0  0  0  0  0  0  0  0
  -11.1621    0.5028    0.0007 C   0  0  0  0  0  0  0  0  0  0  0  0
    8.7119    1.3905   -0.0005 O   0  0  0  0  0  0  0  0  0  0  0  0
   10.0149   -0.3943    0.0043 O   0  0  0  0  0  0  0  0  0  0  0  0
    7.5513   -1.2944   -0.8914 H   0  0  0  0  0  0  0  0  0  0  0  0
    7.5514   -1.2950    0.8885 H   0  0  0  0  0  0  0  0  0  0  0  0
    6.3349    0.8657    0.8895 H   0  0  0  0  0  0  0  0  0  0  0  0
    6.3347    0.8664   -0.8905 H   0  0  0  0  0  0  0  0  0  0  0  0
    5.0531   -1.2563   -0.8912 H   0  0  0  0  0  0  0  0  0  0  0  0
    5.0532   -1.2570    0.8887 H   0  0  0  0  0  0  0  0  0  0  0  0
    3.8367    0.9037    0.8897 H   0  0  0  0  0  0  0  0  0  0  0  0
    3.8366    0.9044   -0.8903 H   0  0  0  0  0  0  0  0  0  0  0  0
    2.5549   -1.2183   -0.8910 H   0  0  0  0  0  0  0  0  0  0  0  0
    2.5550   -1.2190    0.8890 H   0  0  0  0  0  0  0  0  0  0  0  0
    1.3385    0.9417    0.8899 H   0  0  0  0  0  0  0  0  0  0  0  0
    1.3384    0.9424   -0.8901 H   0  0  0  0  0  0  0  0  0  0  0  0
    0.0567   -1.1803   -0.8908 H   0  0  0  0  0  0  0  0  0  0  0  0
    0.0568   -1.1810    0.8892 H   0  0  0  0  0  0  0  0  0  0  0  0
   -1.1597    0.9797    0.8901 H   0  0  0  0  0  0  0  0  0  0  0  0
   -1.1598    0.9804   -0.8899 H   0  0  0  0  0  0  0  0  0  0  0  0
   -2.4415   -1.1423   -0.8906 H   0  0  0  0  0  0  0  0  0  0  0  0
   -2.4414   -1.1430    0.8894 H   0  0  0  0  0  0  0  0  0  0  0  0
   -3.6579    1.0177    0.8903 H   0  0  0  0  0  0  0  0  0  0  0  0
   -3.6580    1.0184   -0.8897 H   0  0  0  0  0  0  0  0  0  0  0  0
   -4.9397   -1.1043   -0.8904 H   0  0  0  0  0  0  0  0  0  0  0  0
   -4.9396   -1.1050    0.8896 H   0  0  0  0  0  0  0  0  0  0  0  0
   -6.1561    1.0557    0.8905 H   0  0  0  0  0  0  0  0  0  0  0  0
   -6.1562    1.0564   -0.8894 H   0  0  0  0  0  0  0  0  0  0  0  0
   -7.4379   -1.0663   -0.8902 H   0  0  0  0  0  0  0  0  0  0  0  0
   -7.4377   -1.0670    0.8898 H   0  0  0  0  0  0  0  0  0  0  0  0
   -8.6543    1.0937    0.8907 H   0  0  0  0  0  0  0  0  0  0  0  0
   -8.6544    1.0944   -0.8892 H   0  0  0  0  0  0  0  0  0  0  0  0
   -9.9361   -1.0283   -0.8900 H   0  0  0  0  0  0  0  0  0  0  0  0
   -9.9359   -1.0290    0.8900 H   0  0  0  0  0  0  0  0  0  0  0  0
  -11.1524    1.1317    0.8909 H   0  0  0  0  0  0  0  0  0  0  0  0
  -11.1526    1.1324   -0.8890 H   0  0  0  0  0  0  0  0  0  0  0  0
  -12.0615   -0.1129    0.0006 H   0  0  0  0  0  0  0  0  0  0  0  0
   10.7832    0.1929    0.0042 H   0  0  0  0  0  0  0  0  0  0  0  0
  1  2  1  0  0  0  0
  2  3  1  0  0  0  0
  3  4  1  0  0  0  0
  4  5  1  0  0  0  0
  5  6  1  0  0  0  0
  6  7  1  0  0  0  0
  7  8  1  0  0  0  0
  8  9  1  0  0  0  0
  9 10  1  0  0  0  0
 10 11  1  0  0  0  0
 11 12  1  0  0  0  0
 12 13  1  0  0  0  0
 13 14  1  0  0  0  0
 14 15  1  0  0  0  0
 15 16  1  0  0  0  0
 16 17  1  0  0  0  0
  1 18  2  0  0  0  0
  1 19  1  0  0  0  0
  2 20  1  0  0  0  0
  2 21  1  0  0  0  0
  3 22  1  0  0  0  0
  3 23  1  0  0  0  0
  4 24  1  0  0  0  0
  4 25  1  0  0  0  0
  5 26  1  0  0  0  0
  5 27  1  0  0  0  0
  6 28  1  0  0  0  0
  6 29  1  0  0  0  0
  7 30  1  0  0  0  0
  7 31  1  0  0  0  0
  8 32  1  0  0  0  0
  8 33  1  0  0  0  0
  9 34  1  0  0  0  0
  9 35  1  0  0  0  0
 10 36  1  0  0  0  0
 10 37  1  0  0  0  0
 11 38  1  0  0  0  0
 11 39  1  0  0  0  0
 12 40  1  0  0  0  0
 12 41  1  0  0  0  0
 13 42  1  0  0  0  0
 13 43  1  0  0  0  0
 14 44  1  0  0  0  0
 14 45  1  0  0  0  0
 15 46  1  0  0  0  0
 15 47  1  0  0  0  0
 16 48  1  0  0  0  0
 16 49  1  0  0  0  0
 17 50  1  0  0  0  0
 17 51  1  0  0  0  0
 17 52  1  0  0  0  0
 19 53  1  0  0  0  0
M  END
$$$$
