C10H20NO5PS2
APtclcactv12211717293D 0   0.00000     0.00000
 
 39 38  0  0  0  0  0  0  0  0999 V2000
    0.1265   -0.8160    1.6326 C   0  0  0  0  0  0  0  0  0  0  0  0
   -1.6840   -2.6222   -0.7522 C   0  0  0  0  0  0  0  0  0  0  0  0
   -3.6352    2.2122   -0.2801 C   0  0  0  0  0  0  0  0  0  0  0  0
    5.4134    0.9022   -0.8432 C   0  0  0  0  0  0  0  0  0  0  0  0
   -2.3756   -3.9336   -1.1299 C   0  0  0  0  0  0  0  0  0  0  0  0
   -5.0723    2.7352   -0.3263 C   0  0  0  0  0  0  0  0  0  0  0  0
    2.7615   -1.7173    1.1073 C   0  0  0  0  0  0  0  0  0  0  0  0
    6.7738    0.2274   -1.0300 C   0  0  0  0  0  0  0  0  0  0  0  0
    0.7983    1.1942    0.5956 O   0  0  0  0  0  0  0  0  0  0  0  0
    2.9369    1.5509   -0.2695 O   0  0  0  0  0  0  0  0  0  0  0  0
    1.1215    0.0768    0.9371 C   0  0  0  0  0  0  0  0  0  0  0  0
    3.2608    0.4314    0.0726 C   0  0  0  0  0  0  0  0  0  0  0  0
   -2.6696   -1.6425   -0.4195 O   0  0  0  0  0  0  0  0  0  0  0  0
   -3.6500    0.7861   -0.1894 O   0  0  0  0  0  0  0  0  0  0  0  0
    4.5083   -0.0118   -0.1695 O   0  0  0  0  0  0  0  0  0  0  0  0
   -2.3089   -0.1021   -0.1207 P   0  0  0  0  0  0  0  0  0  0  0  0
   -1.4514    0.0611    1.8112 S   0  0  0  0  0  0  0  0  0  0  0  0
    2.3708   -0.3670    0.6947 N   0  0  0  0  0  0  0  0  0  0  0  0
   -1.0931    0.5093   -1.3938 S   0  0  0  0  0  0  0  0  0  0  0  0
   -0.0251   -1.7200    1.0428 H   0  0  0  0  0  0  0  0  0  0  0  0
    0.5063   -1.0847    2.6183 H   0  0  0  0  0  0  0  0  0  0  0  0
   -1.0331   -2.7888    0.1060 H   0  0  0  0  0  0  0  0  0  0  0  0
   -1.0904   -2.2686   -1.5952 H   0  0  0  0  0  0  0  0  0  0  0  0
   -3.1097    2.5131   -1.1864 H   0  0  0  0  0  0  0  0  0  0  0  0
   -3.1256    2.6263    0.5899 H   0  0  0  0  0  0  0  0  0  0  0  0
   -2.9693   -4.2872   -0.2869 H   0  0  0  0  0  0  0  0  0  0  0  0
   -3.0266   -3.7670   -1.9882 H   0  0  0  0  0  0  0  0  0  0  0  0
   -1.6238   -4.6809   -1.3838 H   0  0  0  0  0  0  0  0  0  0  0  0
   -5.0610    3.8229   -0.3956 H   0  0  0  0  0  0  0  0  0  0  0  0
   -5.5819    2.3210   -1.1963 H   0  0  0  0  0  0  0  0  0  0  0  0
   -5.5978    2.4342    0.5800 H   0  0  0  0  0  0  0  0  0  0  0  0
    2.5515   -2.4190    0.3000 H   0  0  0  0  0  0  0  0  0  0  0  0
    3.8273   -1.7336    1.3349 H   0  0  0  0  0  0  0  0  0  0  0  0
    2.1962   -2.0041    1.9941 H   0  0  0  0  0  0  0  0  0  0  0  0
    5.5342    1.8031   -0.2418 H   0  0  0  0  0  0  0  0  0  0  0  0
    5.0028    1.1679   -1.8173 H   0  0  0  0  0  0  0  0  0  0  0  0
    6.6530   -0.6735   -1.6314 H   0  0  0  0  0  0  0  0  0  0  0  0
    7.4533    0.9135   -1.5358 H   0  0  0  0  0  0  0  0  0  0  0  0
    7.1844   -0.0383   -0.0559 H   0  0  0  0  0  0  0  0  0  0  0  0
 16 17  1  0  0  0  0
 13 16  1  0  0  0  0
 14 16  1  0  0  0  0
 16 19  2  0  0  0  0
  1 17  1  0  0  0  0
  2 13  1  0  0  0  0
  3 14  1  0  0  0  0
  1 11  1  0  0  0  0
  2  5  1  0  0  0  0
  3  6  1  0  0  0  0
 11 18  1  0  0  0  0
  9 11  2  0  0  0  0
 12 18  1  0  0  0  0
  7 18  1  0  0  0  0
 12 15  1  0  0  0  0
 10 12  2  0  0  0  0
  4 15  1  0  0  0  0
  4  8  1  0  0  0  0
  1 20  1  0  0  0  0
  1 21  1  0  0  0  0
  2 22  1  0  0  0  0
  2 23  1  0  0  0  0
  3 24  1  0  0  0  0
  3 25  1  0  0  0  0
  5 26  1  0  0  0  0
  5 27  1  0  0  0  0
  5 28  1  0  0  0  0
  6 29  1  0  0  0  0
  6 30  1  0  0  0  0
  6 31  1  0  0  0  0
  7 32  1  0  0  0  0
  7 33  1  0  0  0  0
  7 34  1  0  0  0  0
  4 35  1  0  0  0  0
  4 36  1  0  0  0  0
  8 37  1  0  0  0  0
  8 38  1  0  0  0  0
  8 39  1  0  0  0  0
M  END
$$$$
