C7H4O7
APtclcactv12151716123D 0   0.00000     0.00000
 
 18 18  0  0  0  0  0  0  0  0999 V2000
    2.5214    3.1914    0.0837 H   0  0  0  0  0  0  0  0  0  0  0  0
    3.9022    1.1234    0.5686 H   0  0  0  0  0  0  0  0  0  0  0  0
    2.3790   -1.4352    0.0063 O   0  0  0  0  0  0  0  0  0  0  0  0
    0.2329   -3.1559    0.0243 O   0  0  0  0  0  0  0  0  0  0  0  0
   -3.6985   -0.1827   -0.0008 O   0  0  0  0  0  0  0  0  0  0  0  0
    1.7601    2.5952    0.0909 O   0  0  0  0  0  0  0  0  0  0  0  0
    3.2836    0.8454   -0.1206 O   0  0  0  0  0  0  0  0  0  0  0  0
   -2.8956    1.8857   -0.0211 O   0  0  0  0  0  0  0  0  0  0  0  0
    2.0148    1.2786   -0.0131 C   0  0  0  0  0  0  0  0  0  0  0  0
   -2.7298    0.5490   -0.0085 C   0  0  0  0  0  0  0  0  0  0  0  0
    0.9632    0.3626   -0.0094 C   0  0  0  0  0  0  0  0  0  0  0  0
   -1.3653   -0.0282   -0.0040 C   0  0  0  0  0  0  0  0  0  0  0  0
    1.2329   -1.0164    0.0036 C   0  0  0  0  0  0  0  0  0  0  0  0
    0.0727   -1.9488    0.0133 C   0  0  0  0  0  0  0  0  0  0  0  0
   -3.8047    2.2152   -0.0236 H   0  0  0  0  0  0  0  0  0  0  0  0
   -0.3146    0.8013   -0.0127 O   0  0  0  0  0  0  0  0  0  0  0  0
   -1.2269   -1.3792    0.0088 C   0  0  0  0  0  0  0  0  0  0  0  0
   -2.0996   -2.0154    0.0162 H   0  0  0  0  0  0  0  0  0  0  0  0
 11 16  1  0  0  0  0
 12 16  1  0  0  0  0
  3 13  2  0  0  0  0
  4 14  2  0  0  0  0
  6  9  1  0  0  0  0
  1  6  1  0  0  0  0
  7  9  1  0  0  0  0
  2  7  1  0  0  0  0
  8 10  1  0  0  0  0
  8 15  1  0  0  0  0
  5 10  2  0  0  0  0
 11 13  1  0  0  0  0
  9 11  2  0  0  0  0
 12 17  2  0  0  0  0
 10 12  1  0  0  0  0
 13 14  1  0  0  0  0
 14 17  1  0  0  0  0
 17 18  1  0  0  0  0
M  END
$$$$
