C10H10O4
APtclcactv12211717223D 0   0.00000     0.00000
 
 24 25  0  0  0  0  0  0  0  0999 V2000
    0.1912   -2.2121    0.1898 C   0  0  0  0  0  0  0  0  0  0  0  0
    1.4487   -1.6352    0.0925 C   0  0  0  0  0  0  0  0  0  0  0  0
    0.6478    2.6833    0.8094 C   0  0  0  0  0  0  0  0  0  0  0  0
    3.9336   -0.5935   -0.0863 C   0  0  0  0  0  0  0  0  0  0  0  0
    0.4442    0.5339   -0.1826 C   0  0  0  0  0  0  0  0  0  0  0  0
    1.5775   -0.2694   -0.0928 C   0  0  0  0  0  0  0  0  0  0  0  0
   -2.4428    1.6913   -0.2922 O   0  0  0  0  0  0  0  0  0  0  0  0
   -2.4113   -1.7331    0.1651 C   0  0  0  0  0  0  0  0  0  0  0  0
    0.5694    1.8731   -0.3651 O   0  0  0  0  0  0  0  0  0  0  0  0
    2.8140    0.2888   -0.1868 O   0  0  0  0  0  0  0  0  0  0  0  0
   -2.1837    0.5140   -0.1394 C   0  0  0  0  0  0  0  0  0  0  0  0
   -0.8254   -0.0479   -0.0853 C   0  0  0  0  0  0  0  0  0  0  0  0
   -0.9348   -1.4311    0.1024 C   0  0  0  0  0  0  0  0  0  0  0  0
   -3.0970   -0.4612    0.0042 O   0  0  0  0  0  0  0  0  0  0  0  0
    0.0973   -3.2788    0.3302 H   0  0  0  0  0  0  0  0  0  0  0  0
   -2.6888   -2.4124   -0.6409 H   0  0  0  0  0  0  0  0  0  0  0  0
   -2.6623   -2.1741    1.1298 H   0  0  0  0  0  0  0  0  0  0  0  0
    2.3311   -2.2541    0.1618 H   0  0  0  0  0  0  0  0  0  0  0  0
   -0.2571    2.5519    1.4026 H   0  0  0  0  0  0  0  0  0  0  0  0
    1.5151    2.3858    1.3988 H   0  0  0  0  0  0  0  0  0  0  0  0
    0.7454    3.7304    0.5226 H   0  0  0  0  0  0  0  0  0  0  0  0
    3.9128   -1.0982    0.8796 H   0  0  0  0  0  0  0  0  0  0  0  0
    3.8852   -1.3343   -0.8844 H   0  0  0  0  0  0  0  0  0  0  0  0
    4.8567   -0.0211   -0.1773 H   0  0  0  0  0  0  0  0  0  0  0  0
  5 12  2  0  0  0  0
 12 13  1  0  0  0  0
 11 12  1  0  0  0  0
  5  6  1  0  0  0  0
  5  9  1  0  0  0  0
  1 13  2  0  0  0  0
  8 13  1  0  0  0  0
 11 14  1  0  0  0  0
  7 11  2  0  0  0  0
  2  6  2  0  0  0  0
  6 10  1  0  0  0  0
  3  9  1  0  0  0  0
  4 10  1  0  0  0  0
  1  2  1  0  0  0  0
  8 14  1  0  0  0  0
  1 15  1  0  0  0  0
  8 16  1  0  0  0  0
  8 17  1  0  0  0  0
  2 18  1  0  0  0  0
  3 19  1  0  0  0  0
  3 20  1  0  0  0  0
  3 21  1  0  0  0  0
  4 22  1  0  0  0  0
  4 23  1  0  0  0  0
  4 24  1  0  0  0  0
M  END
$$$$
