C10H11ClO3
APtclcactv12211717223D 0   0.00000     0.00000
 
 25 25  0  0  0  0  0  0  0  0999 V2000
    0.4592    1.0372    0.0241 C   0  0  0  0  0  0  0  0  0  0  0  0
    2.2700   -1.0560   -0.0548 C   0  0  0  0  0  0  0  0  0  0  0  0
    1.8125    1.2896    0.1373 C   0  0  0  0  0  0  0  0  0  0  0  0
    0.4297   -2.7289   -0.3343 C   0  0  0  0  0  0  0  0  0  0  0  0
   -2.3544    1.3350   -1.4022 C   0  0  0  0  0  0  0  0  0  0  0  0
    0.0080   -0.2658   -0.1292 C   0  0  0  0  0  0  0  0  0  0  0  0
    0.9172   -1.3126   -0.1684 C   0  0  0  0  0  0  0  0  0  0  0  0
    2.7180    0.2439    0.0980 C   0  0  0  0  0  0  0  0  0  0  0  0
   -3.7434   -1.0883    0.5353 O   0  0  0  0  0  0  0  0  0  0  0  0
   -4.5549    0.9662    0.5985 O   0  0  0  0  0  0  0  0  0  0  0  0
   -3.5582    0.0951    0.3761 C   0  0  0  0  0  0  0  0  0  0  0  0
   -1.3233   -0.5163   -0.2403 O   0  0  0  0  0  0  0  0  0  0  0  0
   -5.4027    0.5996    0.8848 H   0  0  0  0  0  0  0  0  0  0  0  0
   -2.2084    0.5929   -0.0722 C   0  0  0  0  0  0  0  0  0  0  0  0
    4.4183    0.5637    0.2411 Cl  0  0  0  0  0  0  0  0  0  0  0  0
   -0.2475    1.8531    0.0593 H   0  0  0  0  0  0  0  0  0  0  0  0
    2.9782   -1.8709   -0.0849 H   0  0  0  0  0  0  0  0  0  0  0  0
    0.3792   -2.9739   -1.3952 H   0  0  0  0  0  0  0  0  0  0  0  0
    1.1187   -3.4110    0.1638 H   0  0  0  0  0  0  0  0  0  0  0  0
   -0.5615   -2.8262    0.1086 H   0  0  0  0  0  0  0  0  0  0  0  0
   -1.8031    1.2705    0.6793 H   0  0  0  0  0  0  0  0  0  0  0  0
    2.1641    2.3038    0.2563 H   0  0  0  0  0  0  0  0  0  0  0  0
   -2.7597    0.6574   -2.1537 H   0  0  0  0  0  0  0  0  0  0  0  0
   -3.0295    2.1811   -1.2740 H   0  0  0  0  0  0  0  0  0  0  0  0
   -1.3781    1.6951   -1.7265 H   0  0  0  0  0  0  0  0  0  0  0  0
  6  7  2  0  0  0  0
  6 12  1  0  0  0  0
  1  6  1  0  0  0  0
  2  7  1  0  0  0  0
  4  7  1  0  0  0  0
 12 14  1  0  0  0  0
  1  3  2  0  0  0  0
  2  8  2  0  0  0  0
 11 14  1  0  0  0  0
  5 14  1  0  0  0  0
  8 15  1  0  0  0  0
 10 11  1  0  0  0  0
  9 11  2  0  0  0  0
  3  8  1  0  0  0  0
  1 16  1  0  0  0  0
  2 17  1  0  0  0  0
  4 18  1  0  0  0  0
  4 19  1  0  0  0  0
  4 20  1  0  0  0  0
 14 21  1  0  0  0  0
  3 22  1  0  0  0  0
  5 23  1  0  0  0  0
  5 24  1  0  0  0  0
  5 25  1  0  0  0  0
 10 13  1  0  0  0  0
M  END
$$$$
