C15H15NO2
APtclcactv12211717073D 0   0.00000     0.00000
 
 33 34  0  0  0  0  0  0  0  0999 V2000
    1.9831   -1.9325    0.5426 C   0  0  0  0  0  0  0  0  0  0  0  0
    3.3673    0.2881   -0.4002 C   0  0  0  0  0  0  0  0  0  0  0  0
    3.2711   -2.0622    0.0647 C   0  0  0  0  0  0  0  0  0  0  0  0
    3.9604   -0.9554   -0.4049 C   0  0  0  0  0  0  0  0  0  0  0  0
   -0.7834   -0.6195   -1.2204 C   0  0  0  0  0  0  0  0  0  0  0  0
   -1.8439   -0.5313   -2.1002 C   0  0  0  0  0  0  0  0  0  0  0  0
   -3.1202   -0.2891   -1.6254 C   0  0  0  0  0  0  0  0  0  0  0  0
   -2.5218   -0.0535    2.0952 C   0  0  0  0  0  0  0  0  0  0  0  0
   -4.7312    0.1287    0.2439 C   0  0  0  0  0  0  0  0  0  0  0  0
   -0.0905   -0.5226    1.9924 H   0  0  0  0  0  0  0  0  0  0  0  0
    1.3676   -0.6871    0.5557 C   0  0  0  0  0  0  0  0  0  0  0  0
    2.0634    0.4367    0.0804 C   0  0  0  0  0  0  0  0  0  0  0  0
   -0.9995   -0.4647    0.1433 C   0  0  0  0  0  0  0  0  0  0  0  0
   -2.2825   -0.2216    0.6168 C   0  0  0  0  0  0  0  0  0  0  0  0
   -3.3388   -0.1345   -0.2688 C   0  0  0  0  0  0  0  0  0  0  0  0
    0.3133    1.8992    0.5647 O   0  0  0  0  0  0  0  0  0  0  0  0
    2.0684    2.8261   -0.4309 O   0  0  0  0  0  0  0  0  0  0  0  0
    1.4232    1.7632    0.0889 C   0  0  0  0  0  0  0  0  0  0  0  0
    1.6080    3.6760   -0.4026 H   0  0  0  0  0  0  0  0  0  0  0  0
    0.0714   -0.5538    1.0365 N   0  0  0  0  0  0  0  0  0  0  0  0
    1.4513   -2.8008    0.9026 H   0  0  0  0  0  0  0  0  0  0  0  0
    3.9094    1.1471   -0.7670 H   0  0  0  0  0  0  0  0  0  0  0  0
    3.7452   -3.0325    0.0569 H   0  0  0  0  0  0  0  0  0  0  0  0
    4.9680   -1.0684   -0.7771 H   0  0  0  0  0  0  0  0  0  0  0  0
    0.2122   -0.8131   -1.5915 H   0  0  0  0  0  0  0  0  0  0  0  0
   -2.4208    0.9985    2.3623 H   0  0  0  0  0  0  0  0  0  0  0  0
   -3.5267   -0.3961    2.3419 H   0  0  0  0  0  0  0  0  0  0  0  0
   -1.7909   -0.6411    2.6507 H   0  0  0  0  0  0  0  0  0  0  0  0
   -1.6767   -0.6515   -3.1604 H   0  0  0  0  0  0  0  0  0  0  0  0
   -3.9479   -0.2206   -2.3157 H   0  0  0  0  0  0  0  0  0  0  0  0
   -4.9086    1.2036    0.2782 H   0  0  0  0  0  0  0  0  0  0  0  0
   -5.4576   -0.3385   -0.4210 H   0  0  0  0  0  0  0  0  0  0  0  0
   -4.8345   -0.2887    1.2456 H   0  0  0  0  0  0  0  0  0  0  0  0
 11 12  1  0  0  0  0
 11 20  1  0  0  0  0
  1 11  2  0  0  0  0
  2 12  2  0  0  0  0
 12 18  1  0  0  0  0
 13 20  1  0  0  0  0
  1  3  1  0  0  0  0
  2  4  1  0  0  0  0
 17 18  1  0  0  0  0
 16 18  2  0  0  0  0
 13 14  2  0  0  0  0
  5 13  1  0  0  0  0
 14 15  1  0  0  0  0
  8 14  1  0  0  0  0
  5  6  2  0  0  0  0
  7 15  2  0  0  0  0
  9 15  1  0  0  0  0
  3  4  2  0  0  0  0
  6  7  1  0  0  0  0
 10 20  1  0  0  0  0
  1 21  1  0  0  0  0
  2 22  1  0  0  0  0
  3 23  1  0  0  0  0
  4 24  1  0  0  0  0
 17 19  1  0  0  0  0
  5 25  1  0  0  0  0
  8 26  1  0  0  0  0
  8 27  1  0  0  0  0
  8 28  1  0  0  0  0
  6 29  1  0  0  0  0
  7 30  1  0  0  0  0
  9 31  1  0  0  0  0
  9 32  1  0  0  0  0
  9 33  1  0  0  0  0
M  END
$$$$
