C10H18O
APtclcactv12211717283D 0   0.00000     0.00000
 
 29 29  0  0  0  0  0  0  0  0999 V2000
    2.6984    1.4954   -0.1722 C   0  0  0  0  0  0  0  0  0  0  0  0
    2.7384   -0.9843    0.1306 C   0  0  0  0  0  0  0  0  0  0  0  0
   -2.4928    0.0647   -1.2846 C   0  0  0  0  0  0  0  0  0  0  0  0
    0.3085   -1.9540   -0.3252 O   0  0  0  0  0  0  0  0  0  0  0  0
   -0.2442    1.4467   -0.0875 C   0  0  0  0  0  0  0  0  0  0  0  0
   -1.5999   -1.0614    0.7617 C   0  0  0  0  0  0  0  0  0  0  0  0
   -1.6062    1.4329    0.6085 C   0  0  0  0  0  0  0  0  0  0  0  0
    0.6011    0.2758    0.4247 C   0  0  0  0  0  0  0  0  0  0  0  0
   -2.3654    0.1580    0.2373 C   0  0  0  0  0  0  0  0  0  0  0  0
   -0.1834   -1.0034    0.2340 C   0  0  0  0  0  0  0  0  0  0  0  0
    1.9079    0.2001   -0.3676 C   0  0  0  0  0  0  0  0  0  0  0  0
    3.6293    1.4415   -0.7366 H   0  0  0  0  0  0  0  0  0  0  0  0
    2.1067    2.3392   -0.5271 H   0  0  0  0  0  0  0  0  0  0  0  0
    2.9224    1.6283    0.8862 H   0  0  0  0  0  0  0  0  0  0  0  0
    1.6839    0.0673   -1.4260 H   0  0  0  0  0  0  0  0  0  0  0  0
    2.9624   -0.8515    1.1890 H   0  0  0  0  0  0  0  0  0  0  0  0
    2.1752   -1.9071   -0.0086 H   0  0  0  0  0  0  0  0  0  0  0  0
    3.6694   -1.0382   -0.4338 H   0  0  0  0  0  0  0  0  0  0  0  0
    0.8221    0.4189    1.4824 H   0  0  0  0  0  0  0  0  0  0  0  0
   -0.3851    1.3497   -1.1640 H   0  0  0  0  0  0  0  0  0  0  0  0
    0.2655    2.3854    0.1295 H   0  0  0  0  0  0  0  0  0  0  0  0
   -1.5856   -1.0438    1.8515 H   0  0  0  0  0  0  0  0  0  0  0  0
   -2.0831   -1.9744    0.4139 H   0  0  0  0  0  0  0  0  0  0  0  0
   -1.4616    1.4670    1.6884 H   0  0  0  0  0  0  0  0  0  0  0  0
   -2.1828    2.3026    0.2936 H   0  0  0  0  0  0  0  0  0  0  0  0
   -3.3591    0.1833    0.6846 H   0  0  0  0  0  0  0  0  0  0  0  0
   -3.0328   -0.8444   -1.5490 H   0  0  0  0  0  0  0  0  0  0  0  0
   -3.0373    0.9322   -1.6574 H   0  0  0  0  0  0  0  0  0  0  0  0
   -1.4989    0.0400   -1.7315 H   0  0  0  0  0  0  0  0  0  0  0  0
  1 11  1  0  0  0  0
  2 11  1  0  0  0  0
  8 11  1  0  0  0  0
  8 10  1  0  0  0  0
  5  8  1  0  0  0  0
  4 10  2  0  0  0  0
  6 10  1  0  0  0  0
  5  7  1  0  0  0  0
  6  9  1  0  0  0  0
  7  9  1  0  0  0  0
  3  9  1  0  0  0  0
  1 12  1  0  0  0  0
  1 13  1  0  0  0  0
  1 14  1  0  0  0  0
 11 15  1  0  0  0  0
  2 16  1  0  0  0  0
  2 17  1  0  0  0  0
  2 18  1  0  0  0  0
  8 19  1  0  0  0  0
  5 20  1  0  0  0  0
  5 21  1  0  0  0  0
  6 22  1  0  0  0  0
  6 23  1  0  0  0  0
  7 24  1  0  0  0  0
  7 25  1  0  0  0  0
  9 26  1  0  0  0  0
  3 27  1  0  0  0  0
  3 28  1  0  0  0  0
  3 29  1  0  0  0  0
M  END
$$$$
