C9H18N2O4
APtclcactv12151716513D 0   0.00000     0.00000
 
 33 32  0  0  0  0  0  0  0  0999 V2000
    1.2492    0.6158   -0.3848 C   0  0  0  0  0  0  0  0  0  0  0  0
   -1.2492    0.6158   -0.3848 C   0  0  0  0  0  0  0  0  0  0  0  0
    0.0000   -1.2311    0.7425 C   0  0  0  0  0  0  0  0  0  0  0  0
   -0.0000   -2.0283   -0.5634 C   0  0  0  0  0  0  0  0  0  0  0  0
    0.0000    1.0630    1.7322 C   0  0  0  0  0  0  0  0  0  0  0  0
   -0.0000   -3.5252   -0.2472 C   0  0  0  0  0  0  0  0  0  0  0  0
    4.7278   -0.1370    1.3602 H   0  0  0  0  0  0  0  0  0  0  0  0
    5.6247    0.4257    0.0557 H   0  0  0  0  0  0  0  0  0  0  0  0
   -4.7278   -0.1370    1.3602 H   0  0  0  0  0  0  0  0  0  0  0  0
   -5.6247    0.4257    0.0557 H   0  0  0  0  0  0  0  0  0  0  0  0
    3.6745    1.0128   -1.3053 O   0  0  0  0  0  0  0  0  0  0  0  0
   -3.6745    1.0128   -1.3053 O   0  0  0  0  0  0  0  0  0  0  0  0
    3.6265    0.5319   -0.1904 C   0  0  0  0  0  0  0  0  0  0  0  0
   -3.6265    0.5319   -0.1904 C   0  0  0  0  0  0  0  0  0  0  0  0
    2.4348    0.2837    0.3849 O   0  0  0  0  0  0  0  0  0  0  0  0
   -2.4348    0.2837    0.3849 O   0  0  0  0  0  0  0  0  0  0  0  0
    0.0000    0.2658    0.4263 C   0  0  0  0  0  0  0  0  0  0  0  0
    4.7661    0.2469    0.4702 N   0  0  0  0  0  0  0  0  0  0  0  0
   -4.7661    0.2469    0.4702 N   0  0  0  0  0  0  0  0  0  0  0  0
    1.2492    1.6822   -0.6101 H   0  0  0  0  0  0  0  0  0  0  0  0
    1.2492    0.0479   -1.3152 H   0  0  0  0  0  0  0  0  0  0  0  0
   -1.2492    0.0479   -1.3152 H   0  0  0  0  0  0  0  0  0  0  0  0
   -1.2492    1.6822   -0.6101 H   0  0  0  0  0  0  0  0  0  0  0  0
   -0.8900   -1.4804    1.3203 H   0  0  0  0  0  0  0  0  0  0  0  0
    0.8900   -1.4804    1.3203 H   0  0  0  0  0  0  0  0  0  0  0  0
   -0.0000    2.1294    1.5069 H   0  0  0  0  0  0  0  0  0  0  0  0
   -0.8900    0.8137    2.3100 H   0  0  0  0  0  0  0  0  0  0  0  0
    0.8900    0.8137    2.3100 H   0  0  0  0  0  0  0  0  0  0  0  0
   -0.8900   -1.7790   -1.1413 H   0  0  0  0  0  0  0  0  0  0  0  0
    0.8900   -1.7790   -1.1413 H   0  0  0  0  0  0  0  0  0  0  0  0
    0.8900   -3.7745    0.3306 H   0  0  0  0  0  0  0  0  0  0  0  0
   -0.8900   -3.7745    0.3306 H   0  0  0  0  0  0  0  0  0  0  0  0
   -0.0000   -4.0931   -1.1776 H   0  0  0  0  0  0  0  0  0  0  0  0
  1 17  1  0  0  0  0
  2 17  1  0  0  0  0
  3 17  1  0  0  0  0
  5 17  1  0  0  0  0
  1 15  1  0  0  0  0
  2 16  1  0  0  0  0
  3  4  1  0  0  0  0
 13 15  1  0  0  0  0
 14 16  1  0  0  0  0
  4  6  1  0  0  0  0
 13 18  1  0  0  0  0
 11 13  2  0  0  0  0
 14 19  1  0  0  0  0
 12 14  2  0  0  0  0
  1 20  1  0  0  0  0
  1 21  1  0  0  0  0
  2 22  1  0  0  0  0
  2 23  1  0  0  0  0
  3 24  1  0  0  0  0
  3 25  1  0  0  0  0
  5 26  1  0  0  0  0
  5 27  1  0  0  0  0
  5 28  1  0  0  0  0
  4 29  1  0  0  0  0
  4 30  1  0  0  0  0
  6 31  1  0  0  0  0
  6 32  1  0  0  0  0
  6 33  1  0  0  0  0
  7 18  1  0  0  0  0
  8 18  1  0  0  0  0
  9 19  1  0  0  0  0
 10 19  1  0  0  0  0
M  END
$$$$
