C7H10O5
APtclcactv12151716203D 0   0.00000     0.00000
 
 22 21  0  0  0  0  0  0  0  0999 V2000
   -3.6749   -0.3644    0.0000 C   0  0  0  0  0  0  0  0  0  0  0  0
   -4.8882    0.5677   -0.0000 C   0  0  0  0  0  0  0  0  0  0  0  0
   -2.4571    0.4265   -0.0000 O   0  0  0  0  0  0  0  0  0  0  0  0
   -1.2917   -0.2464   -0.0000 C   0  0  0  0  0  0  0  0  0  0  0  0
   -0.0000    0.4993    0.0000 C   0  0  0  0  0  0  0  0  0  0  0  0
    0.0000    1.7074    0.0000 O   0  0  0  0  0  0  0  0  0  0  0  0
    1.2917   -0.2464    0.0000 C   0  0  0  0  0  0  0  0  0  0  0  0
    1.2917   -1.4592    0.0000 O   0  0  0  0  0  0  0  0  0  0  0  0
    2.4571    0.4265    0.0000 O   0  0  0  0  0  0  0  0  0  0  0  0
    3.6749   -0.3644   -0.0000 C   0  0  0  0  0  0  0  0  0  0  0  0
    4.8882    0.5677    0.0000 C   0  0  0  0  0  0  0  0  0  0  0  0
   -1.2917   -1.4592   -0.0000 O   0  0  0  0  0  0  0  0  0  0  0  0
   -3.6998   -0.9932    0.8900 H   0  0  0  0  0  0  0  0  0  0  0  0
   -3.6998   -0.9932   -0.8900 H   0  0  0  0  0  0  0  0  0  0  0  0
   -5.8024   -0.0260    0.0000 H   0  0  0  0  0  0  0  0  0  0  0  0
   -4.8634    1.1965    0.8900 H   0  0  0  0  0  0  0  0  0  0  0  0
   -4.8634    1.1965   -0.8900 H   0  0  0  0  0  0  0  0  0  0  0  0
    3.6997   -0.9932    0.8900 H   0  0  0  0  0  0  0  0  0  0  0  0
    3.6997   -0.9932   -0.8900 H   0  0  0  0  0  0  0  0  0  0  0  0
    5.8024   -0.0260   -0.0000 H   0  0  0  0  0  0  0  0  0  0  0  0
    4.8634    1.1965   -0.8900 H   0  0  0  0  0  0  0  0  0  0  0  0
    4.8634    1.1965    0.8900 H   0  0  0  0  0  0  0  0  0  0  0  0
  1  2  1  0  0  0  0
  1  3  1  0  0  0  0
  3  4  1  0  0  0  0
  4  5  1  0  0  0  0
  5  6  2  0  0  0  0
  5  7  1  0  0  0  0
  7  8  2  0  0  0  0
  7  9  1  0  0  0  0
  9 10  1  0  0  0  0
 10 11  1  0  0  0  0
  4 12  2  0  0  0  0
  1 13  1  0  0  0  0
  1 14  1  0  0  0  0
  2 15  1  0  0  0  0
  2 16  1  0  0  0  0
  2 17  1  0  0  0  0
 10 18  1  0  0  0  0
 10 19  1  0  0  0  0
 11 20  1  0  0  0  0
 11 21  1  0  0  0  0
 11 22  1  0  0  0  0
M  END
$$$$
