C4H6O6
APtclcactv12211716383D 0   0.00000     0.00000
 
 16 15  0  0  0  0  0  0  0  0999 V2000
   -0.3144    1.7140    0.9709 H   0  0  0  0  0  0  0  0  0  0  0  0
    0.3144    1.7140   -0.9709 H   0  0  0  0  0  0  0  0  0  0  0  0
   -2.5819    0.7576    0.3589 O   0  0  0  0  0  0  0  0  0  0  0  0
    2.5819    0.7576   -0.3589 O   0  0  0  0  0  0  0  0  0  0  0  0
   -0.2042    0.8660    1.4224 O   0  0  0  0  0  0  0  0  0  0  0  0
    0.2042    0.8660   -1.4224 O   0  0  0  0  0  0  0  0  0  0  0  0
   -2.4103   -1.2261   -0.5998 O   0  0  0  0  0  0  0  0  0  0  0  0
    2.4103   -1.2261    0.5998 O   0  0  0  0  0  0  0  0  0  0  0  0
   -1.8997   -0.2083    0.1108 C   0  0  0  0  0  0  0  0  0  0  0  0
    1.8997   -0.2083   -0.1108 C   0  0  0  0  0  0  0  0  0  0  0  0
   -3.3284   -1.1408   -0.8914 H   0  0  0  0  0  0  0  0  0  0  0  0
    3.3284   -1.1408    0.8914 H   0  0  0  0  0  0  0  0  0  0  0  0
   -0.4754   -0.2703    0.5994 C   0  0  0  0  0  0  0  0  0  0  0  0
    0.4754   -0.2703   -0.5994 C   0  0  0  0  0  0  0  0  0  0  0  0
   -0.3294   -1.1818    1.1789 H   0  0  0  0  0  0  0  0  0  0  0  0
    0.3294   -1.1818   -1.1789 H   0  0  0  0  0  0  0  0  0  0  0  0
 13 14  1  0  0  0  0
  9 13  1  0  0  0  0
  5 13  1  0  0  0  0
 10 14  1  0  0  0  0
  6 14  1  0  0  0  0
  7  9  1  0  0  0  0
  3  9  2  0  0  0  0
  4 10  2  0  0  0  0
  8 10  1  0  0  0  0
 13 15  1  0  0  0  0
 14 16  1  0  0  0  0
  1  5  1  0  0  0  0
  2  6  1  0  0  0  0
  7 11  1  0  0  0  0
  8 12  1  0  0  0  0
M  END
$$$$
