C6H7NO3S
APtclcactv12211716543D 0   0.00000     0.00000
 
 18 18  0  0  0  0  0  0  0  0999 V2000
    0.4501    1.5412    0.0077 C   0  0  0  0  0  0  0  0  0  0  0  0
    0.9546   -0.7994    0.0291 C   0  0  0  0  0  0  0  0  0  0  0  0
    1.8005    1.8370   -0.0333 C   0  0  0  0  0  0  0  0  0  0  0  0
    2.7321    0.8178   -0.0435 C   0  0  0  0  0  0  0  0  0  0  0  0
    2.9564   -2.4631    0.0008 H   0  0  0  0  0  0  0  0  0  0  0  0
    4.1986   -1.3331   -0.0509 H   0  0  0  0  0  0  0  0  0  0  0  0
    0.0281    0.2249    0.0386 C   0  0  0  0  0  0  0  0  0  0  0  0
    2.3115   -0.5059   -0.0125 C   0  0  0  0  0  0  0  0  0  0  0  0
   -1.8072   -1.4443    0.6578 O   0  0  0  0  0  0  0  0  0  0  0  0
   -2.3346    0.9988    0.6360 O   0  0  0  0  0  0  0  0  0  0  0  0
   -2.1732   -0.2626   -1.3489 O   0  0  0  0  0  0  0  0  0  0  0  0
   -3.1146   -0.4666   -1.4346 H   0  0  0  0  0  0  0  0  0  0  0  0
    3.2512   -1.5393   -0.0218 N   0  0  0  0  0  0  0  0  0  0  0  0
   -1.6936   -0.1463    0.0908 S   0  0  0  0  0  0  0  0  0  0  0  0
   -0.2764    2.3403    0.0202 H   0  0  0  0  0  0  0  0  0  0  0  0
    0.6244   -1.8274    0.0540 H   0  0  0  0  0  0  0  0  0  0  0  0
    2.1268    2.8662   -0.0578 H   0  0  0  0  0  0  0  0  0  0  0  0
    3.7865    1.0495   -0.0760 H   0  0  0  0  0  0  0  0  0  0  0  0
  1  7  2  0  0  0  0
  2  7  1  0  0  0  0
  7 14  1  0  0  0  0
  1  3  1  0  0  0  0
  2  8  2  0  0  0  0
  9 14  2  0  0  0  0
 11 14  1  0  0  0  0
 10 14  2  0  0  0  0
  3  4  2  0  0  0  0
  4  8  1  0  0  0  0
  8 13  1  0  0  0  0
  1 15  1  0  0  0  0
  2 16  1  0  0  0  0
  3 17  1  0  0  0  0
  4 18  1  0  0  0  0
  5 13  1  0  0  0  0
  6 13  1  0  0  0  0
 11 12  1  0  0  0  0
M  END
$$$$
