C7H5ClO2
APtclcactv12151716133D 0   0.00000     0.00000
 
 15 15  0  0  0  0  0  0  0  0999 V2000
   -2.9098    0.8608   -0.0003 Cl  0  0  0  0  0  0  0  0  0  0  0  0
   -1.4357   -0.0562   -0.0009 C   0  0  0  0  0  0  0  0  0  0  0  0
   -0.2185    0.5959   -0.0006 C   0  0  0  0  0  0  0  0  0  0  0  0
    0.9654   -0.1437   -0.0007 C   0  0  0  0  0  0  0  0  0  0  0  0
    2.2714    0.5468    0.0002 C   0  0  0  0  0  0  0  0  0  0  0  0
    2.3167    1.7607    0.0009 O   0  0  0  0  0  0  0  0  0  0  0  0
    3.4122   -0.1697    0.0001 O   0  0  0  0  0  0  0  0  0  0  0  0
    0.9100   -1.5391   -0.0011 C   0  0  0  0  0  0  0  0  0  0  0  0
   -0.3124   -2.1780   -0.0014 C   0  0  0  0  0  0  0  0  0  0  0  0
   -1.4828   -1.4399    0.0040 C   0  0  0  0  0  0  0  0  0  0  0  0
   -0.1825    1.6753   -0.0007 H   0  0  0  0  0  0  0  0  0  0  0  0
    4.2422    0.3264    0.0007 H   0  0  0  0  0  0  0  0  0  0  0  0
    1.8224   -2.1168   -0.0015 H   0  0  0  0  0  0  0  0  0  0  0  0
   -0.3561   -3.2571   -0.0017 H   0  0  0  0  0  0  0  0  0  0  0  0
   -2.4372   -1.9454    0.0041 H   0  0  0  0  0  0  0  0  0  0  0  0
  1  2  1  0  0  0  0
  2  3  1  0  0  0  0
  3  4  2  0  0  0  0
  4  5  1  0  0  0  0
  5  6  2  0  0  0  0
  5  7  1  0  0  0  0
  4  8  1  0  0  0  0
  8  9  2  0  0  0  0
  9 10  1  0  0  0  0
  2 10  2  0  0  0  0
  3 11  1  0  0  0  0
  7 12  1  0  0  0  0
  8 13  1  0  0  0  0
  9 14  1  0  0  0  0
 10 15  1  0  0  0  0
M  END
$$$$
