C15H21NO4
APtclcactv12211717083D 0   0.00000     0.00000
 
 41 41  0  0  0  0  0  0  0  0999 V2000
   -1.2903    3.1453   -0.4185 C   0  0  0  0  0  0  0  0  0  0  0  0
   -1.2097    3.4076    0.9368 C   0  0  0  0  0  0  0  0  0  0  0  0
   -0.7222    2.4458    1.8025 C   0  0  0  0  0  0  0  0  0  0  0  0
   -2.1937   -1.1910    0.1051 C   0  0  0  0  0  0  0  0  0  0  0  0
   -0.9728    1.6356   -2.3888 C   0  0  0  0  0  0  0  0  0  0  0  0
    0.2160    0.1714    2.2598 C   0  0  0  0  0  0  0  0  0  0  0  0
   -4.2037   -2.4044    0.5878 C   0  0  0  0  0  0  0  0  0  0  0  0
    1.7630    0.8630   -1.8085 C   0  0  0  0  0  0  0  0  0  0  0  0
    4.5495   -0.9598    0.8487 C   0  0  0  0  0  0  0  0  0  0  0  0
   -0.3947    0.9525   -0.0449 C   0  0  0  0  0  0  0  0  0  0  0  0
   -0.8842    1.9208   -0.9117 C   0  0  0  0  0  0  0  0  0  0  0  0
   -0.3142    1.2194    1.3156 C   0  0  0  0  0  0  0  0  0  0  0  0
   -0.4604   -2.4227   -0.9188 O   0  0  0  0  0  0  0  0  0  0  0  0
    1.9458   -1.1260    1.0570 O   0  0  0  0  0  0  0  0  0  0  0  0
   -0.8173   -1.3463   -0.4886 C   0  0  0  0  0  0  0  0  0  0  0  0
    2.3411   -0.7592   -0.0242 C   0  0  0  0  0  0  0  0  0  0  0  0
   -2.8814   -2.4423    0.0472 O   0  0  0  0  0  0  0  0  0  0  0  0
    3.6583   -0.6356   -0.2508 O   0  0  0  0  0  0  0  0  0  0  0  0
    1.3551   -0.4402   -1.1184 C   0  0  0  0  0  0  0  0  0  0  0  0
    0.0171   -0.2892   -0.5413 N   0  0  0  0  0  0  0  0  0  0  0  0
   -1.6753    3.8971   -1.0915 H   0  0  0  0  0  0  0  0  0  0  0  0
   -1.9987    1.7830   -2.7264 H   0  0  0  0  0  0  0  0  0  0  0  0
   -0.3115    2.3123   -2.9298 H   0  0  0  0  0  0  0  0  0  0  0  0
   -0.6724    0.6051   -2.5785 H   0  0  0  0  0  0  0  0  0  0  0  0
   -1.5278    4.3660    1.3200 H   0  0  0  0  0  0  0  0  0  0  0  0
   -0.6602    2.6538    2.8604 H   0  0  0  0  0  0  0  0  0  0  0  0
    1.2658    0.3724    2.4733 H   0  0  0  0  0  0  0  0  0  0  0  0
   -0.3549    0.1964    3.1880 H   0  0  0  0  0  0  0  0  0  0  0  0
    0.1205   -0.8127    1.8010 H   0  0  0  0  0  0  0  0  0  0  0  0
   -4.6579   -3.3919    0.5066 H   0  0  0  0  0  0  0  0  0  0  0  0
   -4.1592   -2.1100    1.6364 H   0  0  0  0  0  0  0  0  0  0  0  0
   -4.8025   -1.6822    0.0328 H   0  0  0  0  0  0  0  0  0  0  0  0
   -2.1075   -0.8715    1.1436 H   0  0  0  0  0  0  0  0  0  0  0  0
   -2.7509   -0.4437   -0.4599 H   0  0  0  0  0  0  0  0  0  0  0  0
    1.3470   -1.2504   -1.8476 H   0  0  0  0  0  0  0  0  0  0  0  0
    2.8466    0.8895   -1.9236 H   0  0  0  0  0  0  0  0  0  0  0  0
    1.2919    0.9173   -2.7899 H   0  0  0  0  0  0  0  0  0  0  0  0
    1.4410    1.7106   -1.2036 H   0  0  0  0  0  0  0  0  0  0  0  0
    4.3354   -0.3068    1.6947 H   0  0  0  0  0  0  0  0  0  0  0  0
    4.3993   -1.9982    1.1441 H   0  0  0  0  0  0  0  0  0  0  0  0
    5.5830   -0.8179    0.5327 H   0  0  0  0  0  0  0  0  0  0  0  0
 10 11  2  0  0  0  0
 10 12  1  0  0  0  0
 10 20  1  0  0  0  0
  1 11  1  0  0  0  0
  5 11  1  0  0  0  0
  3 12  2  0  0  0  0
  6 12  1  0  0  0  0
 15 20  1  0  0  0  0
 19 20  1  0  0  0  0
  1  2  2  0  0  0  0
  2  3  1  0  0  0  0
  7 17  1  0  0  0  0
  4 17  1  0  0  0  0
  4 15  1  0  0  0  0
 13 15  2  0  0  0  0
 16 19  1  0  0  0  0
  8 19  1  0  0  0  0
 14 16  2  0  0  0  0
 16 18  1  0  0  0  0
  9 18  1  0  0  0  0
  1 21  1  0  0  0  0
  5 22  1  0  0  0  0
  5 23  1  0  0  0  0
  5 24  1  0  0  0  0
  2 25  1  0  0  0  0
  3 26  1  0  0  0  0
  6 27  1  0  0  0  0
  6 28  1  0  0  0  0
  6 29  1  0  0  0  0
  7 30  1  0  0  0  0
  7 31  1  0  0  0  0
  7 32  1  0  0  0  0
  4 33  1  0  0  0  0
  4 34  1  0  0  0  0
 19 35  1  0  0  0  0
  8 36  1  0  0  0  0
  8 37  1  0  0  0  0
  8 38  1  0  0  0  0
  9 39  1  0  0  0  0
  9 40  1  0  0  0  0
  9 41  1  0  0  0  0
M  END
$$$$
