C8H8O3
APtclcactv12151716293D 0   0.00000     0.00000
 
 19 19  0  0  0  0  0  0  0  0999 V2000
    3.9066    0.6095    0.0090 C   0  0  0  0  0  0  0  0  0  0  0  0
    2.4700    0.8205    0.0022 O   0  0  0  0  0  0  0  0  0  0  0  0
    1.6903   -0.2785    0.0017 C   0  0  0  0  0  0  0  0  0  0  0  0
    2.1969   -1.3828    0.0067 O   0  0  0  0  0  0  0  0  0  0  0  0
    0.2221   -0.1408   -0.0050 C   0  0  0  0  0  0  0  0  0  0  0  0
   -0.5887   -1.2796   -0.0056 C   0  0  0  0  0  0  0  0  0  0  0  0
   -1.9590   -1.1467   -0.0119 C   0  0  0  0  0  0  0  0  0  0  0  0
   -2.5366    0.1178   -0.0178 C   0  0  0  0  0  0  0  0  0  0  0  0
   -3.8877    0.2444   -0.0240 O   0  0  0  0  0  0  0  0  0  0  0  0
   -1.7341    1.2528   -0.0167 C   0  0  0  0  0  0  0  0  0  0  0  0
   -0.3629    1.1288   -0.0051 C   0  0  0  0  0  0  0  0  0  0  0  0
    4.4154    1.5734    0.0088 H   0  0  0  0  0  0  0  0  0  0  0  0
    4.1875    0.0506    0.9017 H   0  0  0  0  0  0  0  0  0  0  0  0
    4.1953    0.0460   -0.8783 H   0  0  0  0  0  0  0  0  0  0  0  0
   -0.1407   -2.2624   -0.0015 H   0  0  0  0  0  0  0  0  0  0  0  0
   -2.5861   -2.0260   -0.0128 H   0  0  0  0  0  0  0  0  0  0  0  0
   -4.2831    0.2834    0.8576 H   0  0  0  0  0  0  0  0  0  0  0  0
   -2.1868    2.2334   -0.0209 H   0  0  0  0  0  0  0  0  0  0  0  0
    0.2599    2.0111   -0.0039 H   0  0  0  0  0  0  0  0  0  0  0  0
  1  2  1  0  0  0  0
  2  3  1  0  0  0  0
  3  4  2  0  0  0  0
  3  5  1  0  0  0  0
  5  6  2  0  0  0  0
  6  7  1  0  0  0  0
  7  8  2  0  0  0  0
  8  9  1  0  0  0  0
  8 10  1  0  0  0  0
 10 11  2  0  0  0  0
  5 11  1  0  0  0  0
  1 12  1  0  0  0  0
  1 13  1  0  0  0  0
  1 14  1  0  0  0  0
  6 15  1  0  0  0  0
  7 16  1  0  0  0  0
  9 17  1  0  0  0  0
 10 18  1  0  0  0  0
 11 19  1  0  0  0  0
M  END
$$$$
