C7H7NO2
APtclcactv12151716173D 0   0.00000     0.00000
 
 17 17  0  0  0  0  0  0  0  0999 V2000
    1.2270    0.3008   -0.0025 C   0  0  0  0  0  0  0  0  0  0  0  0
   -0.2388    0.1183   -0.0014 C   0  0  0  0  0  0  0  0  0  0  0  0
   -0.7947   -1.1620   -0.0011 C   0  0  0  0  0  0  0  0  0  0  0  0
   -2.1014   -1.3245   -0.0007 N   0  0  0  0  0  0  0  0  0  0  0  0
   -2.9313   -0.2989   -0.0001 C   0  0  0  0  0  0  0  0  0  0  0  0
   -2.4596    1.0018   -0.0003 C   0  0  0  0  0  0  0  0  0  0  0  0
   -1.0947    1.2272    0.0051 C   0  0  0  0  0  0  0  0  0  0  0  0
    1.6998    1.4197   -0.0028 O   0  0  0  0  0  0  0  0  0  0  0  0
    2.0396   -0.7737    0.0025 O   0  0  0  0  0  0  0  0  0  0  0  0
    3.4691   -0.5191    0.0011 C   0  0  0  0  0  0  0  0  0  0  0  0
   -0.1475   -2.0266   -0.0016 H   0  0  0  0  0  0  0  0  0  0  0  0
   -3.9964   -0.4776    0.0003 H   0  0  0  0  0  0  0  0  0  0  0  0
   -3.1498    1.8325   -0.0002 H   0  0  0  0  0  0  0  0  0  0  0  0
   -0.6992    2.2322    0.0050 H   0  0  0  0  0  0  0  0  0  0  0  0
    4.0069   -1.4672    0.0055 H   0  0  0  0  0  0  0  0  0  0  0  0
    3.7366    0.0462   -0.8916 H   0  0  0  0  0  0  0  0  0  0  0  0
    3.7368    0.0546    0.8883 H   0  0  0  0  0  0  0  0  0  0  0  0
  1  2  1  0  0  0  0
  2  3  2  0  0  0  0
  3  4  1  0  0  0  0
  4  5  2  0  0  0  0
  5  6  1  0  0  0  0
  6  7  2  0  0  0  0
  2  7  1  0  0  0  0
  1  8  2  0  0  0  0
  1  9  1  0  0  0  0
  9 10  1  0  0  0  0
  3 11  1  0  0  0  0
  5 12  1  0  0  0  0
  6 13  1  0  0  0  0
  7 14  1  0  0  0  0
 10 15  1  0  0  0  0
 10 16  1  0  0  0  0
 10 17  1  0  0  0  0
M  END
$$$$
