C8H9NO2
APtclcactv12151716303D 0   0.00000     0.00000
 
 20 20  0  0  0  0  0  0  0  0999 V2000
    3.8868   -0.6081    0.0010 C   0  0  0  0  0  0  0  0  0  0  0  0
    2.4504   -0.8201    0.0010 O   0  0  0  0  0  0  0  0  0  0  0  0
    1.6698    0.2785    0.0003 C   0  0  0  0  0  0  0  0  0  0  0  0
    0.2025    0.1399    0.0002 C   0  0  0  0  0  0  0  0  0  0  0  0
   -0.6090    1.2790   -0.0005 C   0  0  0  0  0  0  0  0  0  0  0  0
   -1.9737    1.1465   -0.0006 C   0  0  0  0  0  0  0  0  0  0  0  0
   -2.5518   -0.1202    0.0005 C   0  0  0  0  0  0  0  0  0  0  0  0
   -1.7468   -1.2562    0.0012 C   0  0  0  0  0  0  0  0  0  0  0  0
   -0.3814   -1.1309   -0.0050 C   0  0  0  0  0  0  0  0  0  0  0  0
   -3.9357   -0.2508    0.0014 N   0  0  0  0  0  0  0  0  0  0  0  0
    2.1758    1.3833   -0.0002 O   0  0  0  0  0  0  0  0  0  0  0  0
    4.1711   -0.0462    0.8908 H   0  0  0  0  0  0  0  0  0  0  0  0
    4.3963   -1.5717    0.0016 H   0  0  0  0  0  0  0  0  0  0  0  0
    4.1713   -0.0472   -0.8892 H   0  0  0  0  0  0  0  0  0  0  0  0
   -0.1612    2.2618   -0.0007 H   0  0  0  0  0  0  0  0  0  0  0  0
   -2.6009    2.0257   -0.0011 H   0  0  0  0  0  0  0  0  0  0  0  0
   -2.1983   -2.2373    0.0025 H   0  0  0  0  0  0  0  0  0  0  0  0
    0.2424   -2.0125   -0.0048 H   0  0  0  0  0  0  0  0  0  0  0  0
   -4.4975    0.5399    0.0012 H   0  0  0  0  0  0  0  0  0  0  0  0
   -4.3396   -1.1328    0.0022 H   0  0  0  0  0  0  0  0  0  0  0  0
  1  2  1  0  0  0  0
  2  3  1  0  0  0  0
  3  4  1  0  0  0  0
  4  5  2  0  0  0  0
  5  6  1  0  0  0  0
  6  7  2  0  0  0  0
  7  8  1  0  0  0  0
  8  9  2  0  0  0  0
  4  9  1  0  0  0  0
  7 10  1  0  0  0  0
  3 11  2  0  0  0  0
  1 12  1  0  0  0  0
  1 13  1  0  0  0  0
  1 14  1  0  0  0  0
  5 15  1  0  0  0  0
  6 16  1  0  0  0  0
  8 17  1  0  0  0  0
  9 18  1  0  0  0  0
 10 19  1  0  0  0  0
 10 20  1  0  0  0  0
M  END
$$$$
