C6H12N4
APtclcactv12211716573D 0   0.00000     0.00000
 
 22 24  0  0  0  0  0  0  0  0999 V2000
   -0.9924    1.3885    0.0366 C   0  0  0  0  0  0  0  0  0  0  0  0
   -0.9825   -0.7334    1.1879 C   0  0  0  0  0  0  0  0  0  0  0  0
   -0.9820   -0.6694   -1.2254 C   0  0  0  0  0  0  0  0  0  0  0  0
    0.9825    0.6691    1.2247 C   0  0  0  0  0  0  0  0  0  0  0  0
    0.9829    0.7330   -1.1872 C   0  0  0  0  0  0  0  0  0  0  0  0
    0.9929   -1.3877   -0.0366 C   0  0  0  0  0  0  0  0  0  0  0  0
   -1.4652   -0.0071   -0.0004 N   0  0  0  0  0  0  0  0  0  0  0  0
    0.4811    1.3831    0.0368 N   0  0  0  0  0  0  0  0  0  0  0  0
    0.4910   -0.7197    1.1776 N   0  0  0  0  0  0  0  0  0  0  0  0
    0.4914   -0.6563   -1.2139 N   0  0  0  0  0  0  0  0  0  0  0  0
   -1.3567    1.9220   -0.8413 H   0  0  0  0  0  0  0  0  0  0  0  0
   -1.3570    1.8747    0.9415 H   0  0  0  0  0  0  0  0  0  0  0  0
   -1.3470   -0.2426    2.0902 H   0  0  0  0  0  0  0  0  0  0  0  0
   -1.3393   -1.7629    1.1579 H   0  0  0  0  0  0  0  0  0  0  0  0
   -1.3389   -1.6991   -1.2501 H   0  0  0  0  0  0  0  0  0  0  0  0
   -1.3463   -0.1315   -2.1006 H   0  0  0  0  0  0  0  0  0  0  0  0
    2.0725    0.6721    1.2209 H   0  0  0  0  0  0  0  0  0  0  0  0
    0.6152    1.1571    2.1275 H   0  0  0  0  0  0  0  0  0  0  0  0
    0.6159    1.2682   -2.0630 H   0  0  0  0  0  0  0  0  0  0  0  0
    2.0729    0.7359   -1.1829 H   0  0  0  0  0  0  0  0  0  0  0  0
    2.0828   -1.3777   -0.0362 H   0  0  0  0  0  0  0  0  0  0  0  0
    0.6332   -2.4163   -0.0640 H   0  0  0  0  0  0  0  0  0  0  0  0
  1  7  1  0  0  0  0
  2  7  1  0  0  0  0
  3  7  1  0  0  0  0
  1  8  1  0  0  0  0
  4  8  1  0  0  0  0
  5  8  1  0  0  0  0
  2  9  1  0  0  0  0
  4  9  1  0  0  0  0
  6  9  1  0  0  0  0
  3 10  1  0  0  0  0
  5 10  1  0  0  0  0
  6 10  1  0  0  0  0
  1 11  1  0  0  0  0
  1 12  1  0  0  0  0
  2 13  1  0  0  0  0
  2 14  1  0  0  0  0
  3 15  1  0  0  0  0
  3 16  1  0  0  0  0
  4 17  1  0  0  0  0
  4 18  1  0  0  0  0
  5 19  1  0  0  0  0
  5 20  1  0  0  0  0
  6 21  1  0  0  0  0
  6 22  1  0  0  0  0
M  END
$$$$
