C18H25NO4S2
APtclcactv12211717183D 0   0.00000     0.00000
 
 50 51  0  0  1  0  0  0  0  0999 V2000
    7.4517   -1.1310    0.1025 S   0  0  0  0  0  0  0  0  0  0  0  0
    5.4057   -1.0150    0.3941 S   0  0  0  0  0  0  0  0  0  0  0  0
    5.2312    0.7886    0.1073 C   0  0  1  0  0  0  0  0  0  0  0  0
    5.2951    1.3280    1.0524 H   0  0  0  0  0  0  0  0  0  0  0  0
    6.4057    1.1811   -0.8099 C   0  0  0  0  0  0  0  0  0  0  0  0
    7.7383    0.6464   -0.2500 C   0  0  0  0  0  0  0  0  0  0  0  0
    3.8981    1.0874   -0.5815 C   0  0  0  0  0  0  0  0  0  0  0  0
    2.7468    0.7564    0.3701 C   0  0  0  0  0  0  0  0  0  0  0  0
    1.4137    1.0552   -0.3187 C   0  0  0  0  0  0  0  0  0  0  0  0
    0.2623    0.7241    0.6330 C   0  0  0  0  0  0  0  0  0  0  0  0
   -1.0507    1.0184   -0.0455 C   0  0  0  0  0  0  0  0  0  0  0  0
   -1.0643    1.4505   -1.1787 O   0  0  0  0  0  0  0  0  0  0  0  0
   -2.2099    0.8016    0.6069 N   0  0  0  0  0  0  0  0  0  0  0  0
   -3.4863    1.0877   -0.0527 C   0  0  1  0  0  0  0  0  0  0  0  0
   -3.4054    0.8593   -1.1154 H   0  0  0  0  0  0  0  0  0  0  0  0
   -4.5870    0.2275    0.5714 C   0  0  0  0  0  0  0  0  0  0  0  0
   -4.3092   -1.2265    0.2887 C   0  0  0  0  0  0  0  0  0  0  0  0
   -3.5479   -1.9683    1.1729 C   0  0  0  0  0  0  0  0  0  0  0  0
   -3.2918   -3.3013    0.9160 C   0  0  0  0  0  0  0  0  0  0  0  0
   -3.7993   -3.8955   -0.2303 C   0  0  0  0  0  0  0  0  0  0  0  0
   -4.5630   -3.1490   -1.1159 C   0  0  0  0  0  0  0  0  0  0  0  0
   -4.8209   -1.8178   -0.8516 C   0  0  0  0  0  0  0  0  0  0  0  0
   -3.5485   -5.2066   -0.4855 O   0  0  0  0  0  0  0  0  0  0  0  0
   -3.8272    2.5450    0.1234 C   0  0  0  0  0  0  0  0  0  0  0  0
   -3.0805    3.2703    0.7369 O   0  0  0  0  0  0  0  0  0  0  0  0
   -4.9603    3.0374   -0.4013 O   0  0  0  0  0  0  0  0  0  0  0  0
   -5.2241    4.4499   -0.1925 C   0  0  0  0  0  0  0  0  0  0  0  0
    6.2405    0.7638   -1.8032 H   0  0  0  0  0  0  0  0  0  0  0  0
    6.4570    2.2674   -0.8826 H   0  0  0  0  0  0  0  0  0  0  0  0
    8.0002    1.1745    0.6668 H   0  0  0  0  0  0  0  0  0  0  0  0
    8.5303    0.7604   -0.9902 H   0  0  0  0  0  0  0  0  0  0  0  0
    3.8561    2.1432   -0.8492 H   0  0  0  0  0  0  0  0  0  0  0  0
    3.8106    0.4804   -1.4826 H   0  0  0  0  0  0  0  0  0  0  0  0
    2.7888   -0.2994    0.6378 H   0  0  0  0  0  0  0  0  0  0  0  0
    2.8342    1.3634    1.2712 H   0  0  0  0  0  0  0  0  0  0  0  0
    1.3717    2.1110   -0.5864 H   0  0  0  0  0  0  0  0  0  0  0  0
    1.3262    0.4481   -1.2198 H   0  0  0  0  0  0  0  0  0  0  0  0
    0.3044   -0.3317    0.9007 H   0  0  0  0  0  0  0  0  0  0  0  0
    0.3498    1.3312    1.5341 H   0  0  0  0  0  0  0  0  0  0  0  0
   -2.1990    0.4561    1.5132 H   0  0  0  0  0  0  0  0  0  0  0  0
   -4.6084    0.3904    1.6489 H   0  0  0  0  0  0  0  0  0  0  0  0
   -5.5505    0.5033    0.1430 H   0  0  0  0  0  0  0  0  0  0  0  0
   -3.1527   -1.5051    2.0649 H   0  0  0  0  0  0  0  0  0  0  0  0
   -2.6968   -3.8802    1.6068 H   0  0  0  0  0  0  0  0  0  0  0  0
   -4.9591   -3.6093   -2.0089 H   0  0  0  0  0  0  0  0  0  0  0  0
   -5.4153   -1.2363   -1.5407 H   0  0  0  0  0  0  0  0  0  0  0  0
   -4.2074   -5.8118   -0.1184 H   0  0  0  0  0  0  0  0  0  0  0  0
   -4.4184    5.0387   -0.6308 H   0  0  0  0  0  0  0  0  0  0  0  0
   -6.1687    4.7171   -0.6664 H   0  0  0  0  0  0  0  0  0  0  0  0
   -5.2834    4.6542    0.8766 H   0  0  0  0  0  0  0  0  0  0  0  0
  1  2  1  0  0  0  0
  2  3  1  0  0  0  0
  3  4  1  0  0  0  0
  3  5  1  0  0  0  0
  5  6  1  0  0  0  0
  1  6  1  0  0  0  0
  3  7  1  0  0  0  0
  7  8  1  0  0  0  0
  8  9  1  0  0  0  0
  9 10  1  0  0  0  0
 10 11  1  0  0  0  0
 11 12  2  0  0  0  0
 11 13  1  0  0  0  0
 13 14  1  0  0  0  0
 14 15  1  0  0  0  0
 14 16  1  0  0  0  0
 16 17  1  0  0  0  0
 17 18  2  0  0  0  0
 18 19  1  0  0  0  0
 19 20  2  0  0  0  0
 20 21  1  0  0  0  0
 21 22  2  0  0  0  0
 17 22  1  0  0  0  0
 20 23  1  0  0  0  0
 14 24  1  0  0  0  0
 24 25  2  0  0  0  0
 24 26  1  0  0  0  0
 26 27  1  0  0  0  0
  5 28  1  0  0  0  0
  5 29  1  0  0  0  0
  6 30  1  0  0  0  0
  6 31  1  0  0  0  0
  7 32  1  0  0  0  0
  7 33  1  0  0  0  0
  8 34  1  0  0  0  0
  8 35  1  0  0  0  0
  9 36  1  0  0  0  0
  9 37  1  0  0  0  0
 10 38  1  0  0  0  0
 10 39  1  0  0  0  0
 13 40  1  0  0  0  0
 16 41  1  0  0  0  0
 16 42  1  0  0  0  0
 18 43  1  0  0  0  0
 19 44  1  0  0  0  0
 21 45  1  0  0  0  0
 22 46  1  0  0  0  0
 23 47  1  0  0  0  0
 27 48  1  0  0  0  0
 27 49  1  0  0  0  0
 27 50  1  0  0  0  0
M  END
$$$$
