C3H3O4
APtclcactv12211716383D 0   0.00000     0.00000
 
 10  9  0  0  0  0  0  0  0  0999 V2000
    0.2544    0.2497   -0.0017 C   0  0  0  0  0  0  0  0  0  0  0  0
   -1.1925   -0.1339   -0.0003 C   0  0  0  0  0  0  0  0  0  0  0  0
   -2.0531    0.7311    0.0017 O   0  0  0  0  0  0  0  0  0  0  0  0
   -1.5114   -1.3117   -0.0011 O   0  5  0  0  0  0  0  0  0  0  0  0
    0.5711    1.4198   -0.0009 O   0  0  0  0  0  0  0  0  0  0  0  0
    1.2031   -0.7039    0.0017 O   0  0  0  0  0  0  0  0  0  0  0  0
    2.5852   -0.2588    0.0001 C   0  0  0  0  0  0  0  0  0  0  0  0
    2.7735    0.3384   -0.8920 H   0  0  0  0  0  0  0  0  0  0  0  0
    2.7735    0.3449    0.8879 H   0  0  0  0  0  0  0  0  0  0  0  0
    3.2461   -1.1256    0.0032 H   0  0  0  0  0  0  0  0  0  0  0  0
  1  2  1  0  0  0  0
  2  3  2  0  0  0  0
  2  4  1  0  0  0  0
  1  5  2  0  0  0  0
  1  6  1  0  0  0  0
  6  7  1  0  0  0  0
  7  8  1  0  0  0  0
  7  9  1  0  0  0  0
  7 10  1  0  0  0  0
M  CHG  1   4  -1
M  END
$$$$
