CH5AsO3
APtclcactv12101715323D 0   0.00000     0.00000
 
 10  9  0  0  0  0  0  0  0  0999 V2000
   -0.0000    1.9296   -0.4165 C   0  0  0  0  0  0  0  0  0  0  0  0
   -0.0000   -0.0081    0.0371 As  0  0  0  0  0  0  0  0  0  0  0  0
    1.5024   -0.8030   -0.6676 O   0  0  0  0  0  0  0  0  0  0  0  0
    0.0000   -0.1817    1.6111 O   0  0  0  0  0  0  0  0  0  0  0  0
   -1.5024   -0.8030   -0.6676 O   0  0  0  0  0  0  0  0  0  0  0  0
   -0.0000    2.0491   -1.4999 H   0  0  0  0  0  0  0  0  0  0  0  0
   -0.8900    2.4004    0.0010 H   0  0  0  0  0  0  0  0  0  0  0  0
    0.8900    2.4004    0.0010 H   0  0  0  0  0  0  0  0  0  0  0  0
    2.3335   -0.4332   -0.3397 H   0  0  0  0  0  0  0  0  0  0  0  0
   -2.3335   -0.4332   -0.3397 H   0  0  0  0  0  0  0  0  0  0  0  0
  1  2  1  0  0  0  0
  2  3  1  0  0  0  0
  2  4  2  0  0  0  0
  2  5  1  0  0  0  0
  1  6  1  0  0  0  0
  1  7  1  0  0  0  0
  1  8  1  0  0  0  0
  3  9  1  0  0  0  0
  5 10  1  0  0  0  0
M  END
$$$$
