C4H10O
APtclcactv12211716413D 0   0.00000     0.00000
 
 15 14  0  0  0  0  0  0  0  0999 V2000
    0.4174    0.0061    0.3135 C   0  0  0  0  0  0  0  0  0  0  0  0
    0.8458   -1.4067   -0.0882 C   0  0  0  0  0  0  0  0  0  0  0  0
    1.5573    0.9856    0.0271 C   0  0  0  0  0  0  0  0  0  0  0  0
   -0.7370    0.3857   -0.4383 O   0  0  0  0  0  0  0  0  0  0  0  0
   -1.9759    0.0423    0.1858 C   0  0  0  0  0  0  0  0  0  0  0  0
    0.1806    0.0253    1.3773 H   0  0  0  0  0  0  0  0  0  0  0  0
    1.0826   -1.4258   -1.1520 H   0  0  0  0  0  0  0  0  0  0  0  0
    1.7264   -1.6962    0.4853 H   0  0  0  0  0  0  0  0  0  0  0  0
    0.0337   -2.1045    0.1159 H   0  0  0  0  0  0  0  0  0  0  0  0
    1.7941    0.9665   -1.0367 H   0  0  0  0  0  0  0  0  0  0  0  0
    1.2521    1.9921    0.3133 H   0  0  0  0  0  0  0  0  0  0  0  0
    2.4379    0.6961    0.6006 H   0  0  0  0  0  0  0  0  0  0  0  0
   -2.0246   -1.0374    0.3268 H   0  0  0  0  0  0  0  0  0  0  0  0
   -2.0449    0.5387    1.1537 H   0  0  0  0  0  0  0  0  0  0  0  0
   -2.8029    0.3637   -0.4473 H   0  0  0  0  0  0  0  0  0  0  0  0
  1  2  1  0  0  0  0
  1  3  1  0  0  0  0
  1  4  1  0  0  0  0
  4  5  1  0  0  0  0
  1  6  1  0  0  0  0
  2  7  1  0  0  0  0
  2  8  1  0  0  0  0
  2  9  1  0  0  0  0
  3 10  1  0  0  0  0
  3 11  1  0  0  0  0
  3 12  1  0  0  0  0
  5 13  1  0  0  0  0
  5 14  1  0  0  0  0
  5 15  1  0  0  0  0
M  END
$$$$
