CH3Br
APtclcactv12101715313D 0   0.00000     0.00000
 
  5  4  0  0  0  0  0  0  0  0999 V2000
    1.6431   -0.0000   -0.0000 C   0  0  0  0  0  0  0  0  0  0  0  0
   -0.3229    0.0000    0.0000 Br  0  0  0  0  0  0  0  0  0  0  0  0
    2.0064    0.0000    1.0277 H   0  0  0  0  0  0  0  0  0  0  0  0
    2.0064   -0.8900   -0.5138 H   0  0  0  0  0  0  0  0  0  0  0  0
    2.0064    0.8900   -0.5138 H   0  0  0  0  0  0  0  0  0  0  0  0
  1  2  1  0  0  0  0
  1  3  1  0  0  0  0
  1  4  1  0  0  0  0
  1  5  1  0  0  0  0
M  END
$$$$
