C5H10N2O2S
APtclcactv12211716443D 0   0.00000     0.00000
 
 20 19  0  0  0  0  0  0  0  0999 V2000
    1.4399    2.1982    0.0000 C   0  0  0  0  0  0  0  0  0  0  0  0
    2.3593   -1.8878   -0.0000 C   0  0  0  0  0  0  0  0  0  0  0  0
   -4.2858   -0.2831   -0.0000 C   0  0  0  0  0  0  0  0  0  0  0  0
   -3.1133    1.4871   -0.0000 H   0  0  0  0  0  0  0  0  0  0  0  0
   -1.7895   -1.3031    0.0000 O   0  0  0  0  0  0  0  0  0  0  0  0
    1.4445    0.6912    0.0000 C   0  0  0  0  0  0  0  0  0  0  0  0
   -1.8568   -0.0896    0.0000 C   0  0  0  0  0  0  0  0  0  0  0  0
   -0.7306    0.6467   -0.0000 O   0  0  0  0  0  0  0  0  0  0  0  0
   -3.0596    0.5186   -0.0000 N   0  0  0  0  0  0  0  0  0  0  0  0
    0.3261    0.0409    0.0000 N   0  0  0  0  0  0  0  0  0  0  0  0
    2.9731   -0.1851   -0.0000 S   0  0  0  0  0  0  0  0  0  0  0  0
    1.4388    2.5615   -1.0277 H   0  0  0  0  0  0  0  0  0  0  0  0
    0.5488    2.5588    0.5138 H   0  0  0  0  0  0  0  0  0  0  0  0
    2.3287    2.5643    0.5138 H   0  0  0  0  0  0  0  0  0  0  0  0
    1.7527   -2.0554   -0.8900 H   0  0  0  0  0  0  0  0  0  0  0  0
    3.2028   -2.5782   -0.0000 H   0  0  0  0  0  0  0  0  0  0  0  0
    1.7527   -2.0554    0.8900 H   0  0  0  0  0  0  0  0  0  0  0  0
   -4.3087   -0.9120    0.8900 H   0  0  0  0  0  0  0  0  0  0  0  0
   -5.1522    0.3782   -0.0000 H   0  0  0  0  0  0  0  0  0  0  0  0
   -4.3087   -0.9120   -0.8900 H   0  0  0  0  0  0  0  0  0  0  0  0
  6 11  1  0  0  0  0
  2 11  1  0  0  0  0
  8 10  1  0  0  0  0
  7  8  1  0  0  0  0
  5  7  2  0  0  0  0
  6 10  2  0  0  0  0
  7  9  1  0  0  0  0
  3  9  1  0  0  0  0
  1  6  1  0  0  0  0
  4  9  1  0  0  0  0
  1 12  1  0  0  0  0
  1 13  1  0  0  0  0
  1 14  1  0  0  0  0
  2 15  1  0  0  0  0
  2 16  1  0  0  0  0
  2 17  1  0  0  0  0
  3 18  1  0  0  0  0
  3 19  1  0  0  0  0
  3 20  1  0  0  0  0
M  END
$$$$
