CH6O7S2
APtclcactv12101715323D 0   0.00000     0.00000
 
 16 14  0  0  0  0  0  0  0  0999 V2000
  -11.6241   -1.0153   -0.0226 O   0  0  0  0  0  0  0  0  0  0  0  0
    0.0171    1.0101    0.0177 S   0  0  0  0  0  0  0  0  0  0  0  0
   -0.9453   -0.0078    0.2566 O   0  0  0  0  0  0  0  0  0  0  0  0
    0.2313    1.5233   -1.2899 O   0  0  0  0  0  0  0  0  0  0  0  0
   -0.4949    2.2042    0.8104 O   0  0  0  0  0  0  0  0  0  0  0  0
    1.5971    0.5892    0.8031 C   0  0  0  0  0  0  0  0  0  0  0  0
    2.3340   -0.8345   -0.0457 S   0  0  0  0  0  0  0  0  0  0  0  0
    1.5657   -2.0068    0.1879 O   0  0  0  0  0  0  0  0  0  0  0  0
    2.7423   -0.4757   -1.3587 O   0  0  0  0  0  0  0  0  0  0  0  0
    3.6383   -1.0863    0.6972 O   0  0  0  0  0  0  0  0  0  0  0  0
  -12.0080   -0.1844   -0.3346 H   0  0  0  0  0  0  0  0  0  0  0  0
  -10.7394   -1.1944   -0.3693 H   0  0  0  0  0  0  0  0  0  0  0  0
   -1.3452    2.5459    0.5017 H   0  0  0  0  0  0  0  0  0  0  0  0
    2.2737    1.4413    0.7378 H   0  0  0  0  0  0  0  0  0  0  0  0
    1.4272    0.3397    1.8505 H   0  0  0  0  0  0  0  0  0  0  0  0
    4.1509   -1.8297    0.3512 H   0  0  0  0  0  0  0  0  0  0  0  0
  2  3  2  0  0  0  0
  2  4  2  0  0  0  0
  2  5  1  0  0  0  0
  2  6  1  0  0  0  0
  6  7  1  0  0  0  0
  7  8  2  0  0  0  0
  7  9  2  0  0  0  0
  7 10  1  0  0  0  0
  1 11  1  0  0  0  0
  1 12  1  0  0  0  0
  5 13  1  0  0  0  0
  6 14  1  0  0  0  0
  6 15  1  0  0  0  0
 10 16  1  0  0  0  0
M  END
$$$$
