C2H6O3S
APtclcactv12101715353D 0   0.00000     0.00000
 
 12 11  0  0  0  0  0  0  0  0999 V2000
   -0.6808    1.6953   -0.0716 C   0  0  0  0  0  0  0  0  0  0  0  0
   -0.3937   -0.0906    0.0655 S   0  0  0  0  0  0  0  0  0  0  0  0
   -0.0210   -0.4353    1.3927 O   0  0  0  0  0  0  0  0  0  0  0  0
   -1.4062   -0.8126   -0.6220 O   0  0  0  0  0  0  0  0  0  0  0  0
    0.8651   -0.3369   -0.7539 O   0  0  0  0  0  0  0  0  0  0  0  0
    2.0686    0.0908   -0.1131 C   0  0  0  0  0  0  0  0  0  0  0  0
    0.1779    2.2332    0.3300 H   0  0  0  0  0  0  0  0  0  0  0  0
   -0.8187    1.9617   -1.1195 H   0  0  0  0  0  0  0  0  0  0  0  0
   -1.5741    1.9640    0.4922 H   0  0  0  0  0  0  0  0  0  0  0  0
    2.0159    1.1620    0.0812 H   0  0  0  0  0  0  0  0  0  0  0  0
    2.1884   -0.4440    0.8291 H   0  0  0  0  0  0  0  0  0  0  0  0
    2.9196   -0.1195   -0.7610 H   0  0  0  0  0  0  0  0  0  0  0  0
  1  2  1  0  0  0  0
  2  3  2  0  0  0  0
  2  4  2  0  0  0  0
  2  5  1  0  0  0  0
  5  6  1  0  0  0  0
  1  7  1  0  0  0  0
  1  8  1  0  0  0  0
  1  9  1  0  0  0  0
  6 10  1  0  0  0  0
  6 11  1  0  0  0  0
  6 12  1  0  0  0  0
M  END
$$$$
