C6H12O3
APtclcactv12211716563D 0   0.00000     0.00000
 
 21 19  0  0  0  0  0  0  0  0999 V2000
   -7.7212   -0.0262   -0.0831 C   0  0  0  0  0  0  0  0  0  0  0  0
   -8.9739    0.6072    0.4652 C   0  0  0  0  0  0  0  0  0  0  0  0
   -6.9242    0.6435   -0.6963 O   0  0  0  0  0  0  0  0  0  0  0  0
   -7.4883   -1.3333    0.1146 O   0  0  0  0  0  0  0  0  0  0  0  0
    7.9686    0.1374   -0.7732 C   0  0  0  0  0  0  0  0  0  0  0  0
    6.5626   -0.2641   -0.3226 C   0  0  0  0  0  0  0  0  0  0  0  0
    6.6160   -1.5342    0.3300 O   0  0  0  0  0  0  0  0  0  0  0  0
    6.0272    0.7700    0.6340 C   0  0  0  0  0  0  0  0  0  0  0  0
    4.9288    1.4229    0.3454 C   0  0  0  0  0  0  0  0  0  0  0  0
   -9.7684    0.5441   -0.2785 H   0  0  0  0  0  0  0  0  0  0  0  0
   -9.2806    0.0823    1.3699 H   0  0  0  0  0  0  0  0  0  0  0  0
   -8.7789    1.6535    0.7006 H   0  0  0  0  0  0  0  0  0  0  0  0
   -6.6714   -1.6946   -0.2559 H   0  0  0  0  0  0  0  0  0  0  0  0
    8.3558   -0.6106   -1.4651 H   0  0  0  0  0  0  0  0  0  0  0  0
    7.9278    1.1062   -1.2709 H   0  0  0  0  0  0  0  0  0  0  0  0
    8.6237    0.2025    0.0955 H   0  0  0  0  0  0  0  0  0  0  0  0
    5.9074   -0.3291   -1.1913 H   0  0  0  0  0  0  0  0  0  0  0  0
    7.1823   -1.5503    1.1137 H   0  0  0  0  0  0  0  0  0  0  0  0
    6.5492    0.9729    1.5575 H   0  0  0  0  0  0  0  0  0  0  0  0
    4.4068    1.2200   -0.5781 H   0  0  0  0  0  0  0  0  0  0  0  0
    4.5451    2.1640    1.0310 H   0  0  0  0  0  0  0  0  0  0  0  0
  1  2  1  0  0  0  0
  1  3  2  0  0  0  0
  1  4  1  0  0  0  0
  5  6  1  0  0  0  0
  6  7  1  0  0  0  0
  6  8  1  0  0  0  0
  8  9  2  0  0  0  0
  2 10  1  0  0  0  0
  2 11  1  0  0  0  0
  2 12  1  0  0  0  0
  4 13  1  0  0  0  0
  5 14  1  0  0  0  0
  5 15  1  0  0  0  0
  5 16  1  0  0  0  0
  6 17  1  0  0  0  0
  7 18  1  0  0  0  0
  8 19  1  0  0  0  0
  9 20  1  0  0  0  0
  9 21  1  0  0  0  0
M  END
$$$$
