C8H8O5
APtclcactv12151716293D 0   0.00000     0.00000
 
 21 21  0  0  0  0  0  0  0  0999 V2000
    2.1314    0.3262   -0.0028 C   0  0  0  0  0  0  0  0  0  0  0  0
    0.6650    0.1701    0.0090 C   0  0  0  0  0  0  0  0  0  0  0  0
   -0.1592    1.2988    0.0136 C   0  0  0  0  0  0  0  0  0  0  0  0
   -1.5332    1.1495    0.0242 C   0  0  0  0  0  0  0  0  0  0  0  0
   -2.3358    2.2474    0.0281 O   0  0  0  0  0  0  0  0  0  0  0  0
   -2.0964   -0.1239    0.0303 C   0  0  0  0  0  0  0  0  0  0  0  0
   -3.4476   -0.2678    0.0403 O   0  0  0  0  0  0  0  0  0  0  0  0
   -1.2776   -1.2502    0.0258 C   0  0  0  0  0  0  0  0  0  0  0  0
   -1.8311   -2.4925    0.0319 O   0  0  0  0  0  0  0  0  0  0  0  0
    0.0969   -1.1068    0.0099 C   0  0  0  0  0  0  0  0  0  0  0  0
    2.6241    1.4369   -0.0086 O   0  0  0  0  0  0  0  0  0  0  0  0
    2.9250   -0.7628   -0.0015 O   0  0  0  0  0  0  0  0  0  0  0  0
    4.3588   -0.5337   -0.0136 C   0  0  0  0  0  0  0  0  0  0  0  0
    0.2771    2.2867    0.0091 H   0  0  0  0  0  0  0  0  0  0  0  0
   -2.5746    2.5633   -0.8541 H   0  0  0  0  0  0  0  0  0  0  0  0
   -3.8450   -0.3109   -0.8402 H   0  0  0  0  0  0  0  0  0  0  0  0
   -1.9978   -2.8531   -0.8498 H   0  0  0  0  0  0  0  0  0  0  0  0
    0.7315   -1.9807    0.0061 H   0  0  0  0  0  0  0  0  0  0  0  0
    4.6299    0.0252   -0.9092 H   0  0  0  0  0  0  0  0  0  0  0  0
    4.6430    0.0368    0.8706 H   0  0  0  0  0  0  0  0  0  0  0  0
    4.8797   -1.4912   -0.0112 H   0  0  0  0  0  0  0  0  0  0  0  0
  1  2  1  0  0  0  0
  2  3  2  0  0  0  0
  3  4  1  0  0  0  0
  4  5  1  0  0  0  0
  4  6  2  0  0  0  0
  6  7  1  0  0  0  0
  6  8  1  0  0  0  0
  8  9  1  0  0  0  0
  8 10  2  0  0  0  0
  2 10  1  0  0  0  0
  1 11  2  0  0  0  0
  1 12  1  0  0  0  0
 12 13  1  0  0  0  0
  3 14  1  0  0  0  0
  5 15  1  0  0  0  0
  7 16  1  0  0  0  0
  9 17  1  0  0  0  0
 10 18  1  0  0  0  0
 13 19  1  0  0  0  0
 13 20  1  0  0  0  0
 13 21  1  0  0  0  0
M  END
$$$$
