C8H17NO
APtclcactv12151716393D 0   0.00000     0.00000
 
 27 26  0  0  0  0  0  0  0  0999 V2000
   -1.4237    1.6939   -0.5939 C   0  0  0  0  0  0  0  0  0  0  0  0
   -1.3625    0.4521    0.2978 C   0  0  0  0  0  0  0  0  0  0  0  0
   -2.6015   -0.3794    0.0868 C   0  0  0  0  0  0  0  0  0  0  0  0
   -2.5052   -1.5206   -0.3125 O   0  0  0  0  0  0  0  0  0  0  0  0
   -3.8166    0.1450    0.3418 N   0  0  0  0  0  0  0  0  0  0  0  0
   -0.1263   -0.3741   -0.0625 C   0  0  0  0  0  0  0  0  0  0  0  0
    1.1356    0.4250    0.2692 C   0  0  0  0  0  0  0  0  0  0  0  0
    2.3719   -0.4013   -0.0912 C   0  0  0  0  0  0  0  0  0  0  0  0
    3.6338    0.3978    0.2405 C   0  0  0  0  0  0  0  0  0  0  0  0
    4.8701   -0.4284   -0.1198 C   0  0  0  0  0  0  0  0  0  0  0  0
   -0.5276    2.2953   -0.4413 H   0  0  0  0  0  0  0  0  0  0  0  0
   -1.4827    1.3884   -1.6386 H   0  0  0  0  0  0  0  0  0  0  0  0
   -2.3045    2.2825   -0.3372 H   0  0  0  0  0  0  0  0  0  0  0  0
   -1.3036    0.7576    1.3425 H   0  0  0  0  0  0  0  0  0  0  0  0
   -3.8936    1.0577    0.6611 H   0  0  0  0  0  0  0  0  0  0  0  0
   -4.6140   -0.3902    0.2060 H   0  0  0  0  0  0  0  0  0  0  0  0
   -0.1298   -1.3018    0.5099 H   0  0  0  0  0  0  0  0  0  0  0  0
   -0.1410   -0.6044   -1.1278 H   0  0  0  0  0  0  0  0  0  0  0  0
    1.1392    1.3526   -0.3032 H   0  0  0  0  0  0  0  0  0  0  0  0
    1.1504    0.6553    1.3345 H   0  0  0  0  0  0  0  0  0  0  0  0
    2.3684   -1.3289    0.4812 H   0  0  0  0  0  0  0  0  0  0  0  0
    2.3572   -0.6316   -1.1564 H   0  0  0  0  0  0  0  0  0  0  0  0
    3.6373    1.3255   -0.3318 H   0  0  0  0  0  0  0  0  0  0  0  0
    3.6485    0.6281    1.3058 H   0  0  0  0  0  0  0  0  0  0  0  0
    4.8666   -1.3561    0.4525 H   0  0  0  0  0  0  0  0  0  0  0  0
    4.8553   -0.6587   -1.1851 H   0  0  0  0  0  0  0  0  0  0  0  0
    5.7691    0.1408    0.1164 H   0  0  0  0  0  0  0  0  0  0  0  0
  1  2  1  0  0  0  0
  2  3  1  0  0  0  0
  3  4  2  0  0  0  0
  3  5  1  0  0  0  0
  2  6  1  0  0  0  0
  6  7  1  0  0  0  0
  7  8  1  0  0  0  0
  8  9  1  0  0  0  0
  9 10  1  0  0  0  0
  1 11  1  0  0  0  0
  1 12  1  0  0  0  0
  1 13  1  0  0  0  0
  2 14  1  0  0  0  0
  5 15  1  0  0  0  0
  5 16  1  0  0  0  0
  6 17  1  0  0  0  0
  6 18  1  0  0  0  0
  7 19  1  0  0  0  0
  7 20  1  0  0  0  0
  8 21  1  0  0  0  0
  8 22  1  0  0  0  0
  9 23  1  0  0  0  0
  9 24  1  0  0  0  0
 10 25  1  0  0  0  0
 10 26  1  0  0  0  0
 10 27  1  0  0  0  0
M  END
$$$$
