C3H6O2
APtclcactv12101715373D 0   0.00000     0.00000
 
 11 10  0  0  0  0  0  0  0  0999 V2000
   -0.4649    0.0621   -0.0014 C   0  0  0  0  0  0  0  0  0  0  0  0
   -1.8432   -0.5471   -0.0001 C   0  0  0  0  0  0  0  0  0  0  0  0
   -0.3354    1.2634    0.0005 O   0  0  0  0  0  0  0  0  0  0  0  0
    0.6189   -0.7297    0.0010 O   0  0  0  0  0  0  0  0  0  0  0  0
    1.9144   -0.0740   -0.0005 C   0  0  0  0  0  0  0  0  0  0  0  0
   -2.1773   -0.6922   -1.0274 H   0  0  0  0  0  0  0  0  0  0  0  0
   -1.8148   -1.5089    0.5120 H   0  0  0  0  0  0  0  0  0  0  0  0
   -2.5345    0.1190    0.5161 H   0  0  0  0  0  0  0  0  0  0  0  0
    2.0068    0.5462   -0.8921 H   0  0  0  0  0  0  0  0  0  0  0  0
    2.0064    0.5509    0.8879 H   0  0  0  0  0  0  0  0  0  0  0  0
    2.7027   -0.8268    0.0017 H   0  0  0  0  0  0  0  0  0  0  0  0
  1  2  1  0  0  0  0
  1  3  2  0  0  0  0
  1  4  1  0  0  0  0
  4  5  1  0  0  0  0
  2  6  1  0  0  0  0
  2  7  1  0  0  0  0
  2  8  1  0  0  0  0
  5  9  1  0  0  0  0
  5 10  1  0  0  0  0
  5 11  1  0  0  0  0
M  END
$$$$
