C13H26O2
APtclcactv12091702553D 0   0.00000     0.00000
 
 41 40  0  0  0  0  0  0  0  0999 V2000
    5.2053    0.0291   -0.0019 C   0  0  0  0  0  0  0  0  0  0  0  0
    3.9359   -0.7832   -0.0019 C   0  0  0  0  0  0  0  0  0  0  0  0
    2.7288    0.1570   -0.0013 C   0  0  0  0  0  0  0  0  0  0  0  0
    1.4401   -0.6677   -0.0014 C   0  0  0  0  0  0  0  0  0  0  0  0
    0.2330    0.2724   -0.0007 C   0  0  0  0  0  0  0  0  0  0  0  0
   -1.0557   -0.5523   -0.0008 C   0  0  0  0  0  0  0  0  0  0  0  0
   -2.2628    0.3878   -0.0001 C   0  0  0  0  0  0  0  0  0  0  0  0
   -3.5515   -0.4369   -0.0002 C   0  0  0  0  0  0  0  0  0  0  0  0
   -4.7586    0.5032    0.0004 C   0  0  0  0  0  0  0  0  0  0  0  0
   -6.0473   -0.3215    0.0004 C   0  0  0  0  0  0  0  0  0  0  0  0
   -7.2544    0.6187    0.0010 C   0  0  0  0  0  0  0  0  0  0  0  0
   -8.5431   -0.2060    0.0009 C   0  0  0  0  0  0  0  0  0  0  0  0
    5.1501    1.2361   -0.0014 O   0  0  0  0  0  0  0  0  0  0  0  0
    6.3972   -0.5882    0.0032 O   0  0  0  0  0  0  0  0  0  0  0  0
    7.5775    0.2573    0.0030 C   0  0  0  0  0  0  0  0  0  0  0  0
    3.9067   -1.4114   -0.8922 H   0  0  0  0  0  0  0  0  0  0  0  0
    3.9071   -1.4122    0.8878 H   0  0  0  0  0  0  0  0  0  0  0  0
    2.7581    0.7852    0.8889 H   0  0  0  0  0  0  0  0  0  0  0  0
    2.7577    0.7860   -0.8910 H   0  0  0  0  0  0  0  0  0  0  0  0
    1.4109   -1.2960   -0.8916 H   0  0  0  0  0  0  0  0  0  0  0  0
    1.4112   -1.2967    0.8884 H   0  0  0  0  0  0  0  0  0  0  0  0
    0.2623    0.9007    0.8895 H   0  0  0  0  0  0  0  0  0  0  0  0
    0.2619    0.9014   -0.8905 H   0  0  0  0  0  0  0  0  0  0  0  0
   -1.0849   -1.1806   -0.8910 H   0  0  0  0  0  0  0  0  0  0  0  0
   -1.0846   -1.1813    0.8889 H   0  0  0  0  0  0  0  0  0  0  0  0
   -2.2335    1.0161    0.8901 H   0  0  0  0  0  0  0  0  0  0  0  0
   -2.2339    1.0168   -0.8899 H   0  0  0  0  0  0  0  0  0  0  0  0
   -3.5808   -1.0652   -0.8904 H   0  0  0  0  0  0  0  0  0  0  0  0
   -3.5804   -1.0659    0.8895 H   0  0  0  0  0  0  0  0  0  0  0  0
   -4.7293    1.1315    0.8907 H   0  0  0  0  0  0  0  0  0  0  0  0
   -4.7297    1.1322   -0.8893 H   0  0  0  0  0  0  0  0  0  0  0  0
   -6.0766   -0.9497   -0.8899 H   0  0  0  0  0  0  0  0  0  0  0  0
   -6.0762   -0.9505    0.8901 H   0  0  0  0  0  0  0  0  0  0  0  0
   -7.2251    1.2469    0.8912 H   0  0  0  0  0  0  0  0  0  0  0  0
   -7.2255    1.2477   -0.8887 H   0  0  0  0  0  0  0  0  0  0  0  0
   -8.5724   -0.8343   -0.8893 H   0  0  0  0  0  0  0  0  0  0  0  0
   -8.5720   -0.8350    0.8907 H   0  0  0  0  0  0  0  0  0  0  0  0
   -9.4031    0.4637    0.0014 H   0  0  0  0  0  0  0  0  0  0  0  0
    7.5758    0.8834   -0.8893 H   0  0  0  0  0  0  0  0  0  0  0  0
    7.5716    0.8899    0.8906 H   0  0  0  0  0  0  0  0  0  0  0  0
    8.4714   -0.3665    0.0073 H   0  0  0  0  0  0  0  0  0  0  0  0
  1  2  1  0  0  0  0
  2  3  1  0  0  0  0
  3  4  1  0  0  0  0
  4  5  1  0  0  0  0
  5  6  1  0  0  0  0
  6  7  1  0  0  0  0
  7  8  1  0  0  0  0
  8  9  1  0  0  0  0
  9 10  1  0  0  0  0
 10 11  1  0  0  0  0
 11 12  1  0  0  0  0
  1 13  2  0  0  0  0
  1 14  1  0  0  0  0
 14 15  1  0  0  0  0
  2 16  1  0  0  0  0
  2 17  1  0  0  0  0
  3 18  1  0  0  0  0
  3 19  1  0  0  0  0
  4 20  1  0  0  0  0
  4 21  1  0  0  0  0
  5 22  1  0  0  0  0
  5 23  1  0  0  0  0
  6 24  1  0  0  0  0
  6 25  1  0  0  0  0
  7 26  1  0  0  0  0
  7 27  1  0  0  0  0
  8 28  1  0  0  0  0
  8 29  1  0  0  0  0
  9 30  1  0  0  0  0
  9 31  1  0  0  0  0
 10 32  1  0  0  0  0
 10 33  1  0  0  0  0
 11 34  1  0  0  0  0
 11 35  1  0  0  0  0
 12 36  1  0  0  0  0
 12 37  1  0  0  0  0
 12 38  1  0  0  0  0
 15 39  1  0  0  0  0
 15 40  1  0  0  0  0
 15 41  1  0  0  0  0
M  END
$$$$
