C6H6O3
APtclcactv12211716533D 0   0.00000     0.00000
 
 15 15  0  0  0  0  0  0  0  0999 V2000
    1.1404    1.0853   -0.0000 O   0  0  0  0  0  0  0  0  0  0  0  0
    0.4997   -0.1022   -0.0002 C   0  0  0  0  0  0  0  0  0  0  0  0
    1.4428   -1.0910   -0.0002 C   0  0  0  0  0  0  0  0  0  0  0  0
    2.6936   -0.4552    0.0001 C   0  0  0  0  0  0  0  0  0  0  0  0
    2.4631    0.8767    0.0002 C   0  0  0  0  0  0  0  0  0  0  0  0
   -0.9520   -0.2972   -0.0000 C   0  0  0  0  0  0  0  0  0  0  0  0
   -1.4145   -1.4220    0.0002 O   0  0  0  0  0  0  0  0  0  0  0  0
   -1.7760    0.7709   -0.0001 O   0  0  0  0  0  0  0  0  0  0  0  0
   -3.2030    0.5025    0.0001 C   0  0  0  0  0  0  0  0  0  0  0  0
    1.2607   -2.1555   -0.0003 H   0  0  0  0  0  0  0  0  0  0  0  0
    3.6591   -0.9392    0.0002 H   0  0  0  0  0  0  0  0  0  0  0  0
    3.2211    1.6460    0.0001 H   0  0  0  0  0  0  0  0  0  0  0  0
   -3.4652   -0.0697   -0.8898 H   0  0  0  0  0  0  0  0  0  0  0  0
   -3.4650   -0.0694    0.8902 H   0  0  0  0  0  0  0  0  0  0  0  0
   -3.7499    1.4454   -0.0000 H   0  0  0  0  0  0  0  0  0  0  0  0
  1  2  1  0  0  0  0
  2  3  2  0  0  0  0
  3  4  1  0  0  0  0
  4  5  2  0  0  0  0
  1  5  1  0  0  0  0
  2  6  1  0  0  0  0
  6  7  2  0  0  0  0
  6  8  1  0  0  0  0
  8  9  1  0  0  0  0
  3 10  1  0  0  0  0
  4 11  1  0  0  0  0
  5 12  1  0  0  0  0
  9 13  1  0  0  0  0
  9 14  1  0  0  0  0
  9 15  1  0  0  0  0
M  END
$$$$
