C4H6O4
APtclcactv12211716383D 0   0.00000     0.00000
 
 14 13  0  0  0  0  0  0  0  0999 V2000
   -0.0000    1.8470    0.5750 C   0  0  0  0  0  0  0  0  0  0  0  0
   -0.0000    0.6368   -0.3612 C   0  0  0  0  0  0  0  0  0  0  0  0
    1.2305   -0.1951   -0.1066 C   0  0  0  0  0  0  0  0  0  0  0  0
    1.1196   -1.3457    0.2454 O   0  0  0  0  0  0  0  0  0  0  0  0
    2.4496    0.3419   -0.2709 O   0  0  0  0  0  0  0  0  0  0  0  0
   -1.2305   -0.1951   -0.1066 C   0  0  0  0  0  0  0  0  0  0  0  0
   -1.1196   -1.3457    0.2454 O   0  0  0  0  0  0  0  0  0  0  0  0
   -2.4496    0.3419   -0.2709 O   0  0  0  0  0  0  0  0  0  0  0  0
    0.8900    2.4488    0.3908 H   0  0  0  0  0  0  0  0  0  0  0  0
   -0.8900    2.4488    0.3908 H   0  0  0  0  0  0  0  0  0  0  0  0
   -0.0000    1.5057    1.6101 H   0  0  0  0  0  0  0  0  0  0  0  0
    0.0000    0.9782   -1.3963 H   0  0  0  0  0  0  0  0  0  0  0  0
    3.2088   -0.2307   -0.0957 H   0  0  0  0  0  0  0  0  0  0  0  0
   -3.2088   -0.2307   -0.0957 H   0  0  0  0  0  0  0  0  0  0  0  0
  1  2  1  0  0  0  0
  2  3  1  0  0  0  0
  3  4  2  0  0  0  0
  3  5  1  0  0  0  0
  2  6  1  0  0  0  0
  6  7  2  0  0  0  0
  6  8  1  0  0  0  0
  1  9  1  0  0  0  0
  1 10  1  0  0  0  0
  1 11  1  0  0  0  0
  2 12  1  0  0  0  0
  5 13  1  0  0  0  0
  8 14  1  0  0  0  0
M  END
$$$$
