C10H10O2
APtclcactv12211717223D 0   0.00000     0.00000
 
 22 22  0  0  0  0  0  0  0  0999 V2000
    2.4109    0.1009   -0.0020 C   0  0  0  0  0  0  0  0  0  0  0  0
    1.0001   -0.2838   -0.0011 C   0  0  0  0  0  0  0  0  0  0  0  0
    0.0419    0.6660   -0.0004 C   0  0  0  0  0  0  0  0  0  0  0  0
   -1.3780    0.2788    0.0005 C   0  0  0  0  0  0  0  0  0  0  0  0
   -2.3742    1.2604    0.0012 C   0  0  0  0  0  0  0  0  0  0  0  0
   -3.7023    0.8896    0.0015 C   0  0  0  0  0  0  0  0  0  0  0  0
   -4.0505   -0.4499    0.0012 C   0  0  0  0  0  0  0  0  0  0  0  0
   -3.0705   -1.4272    0.0010 C   0  0  0  0  0  0  0  0  0  0  0  0
   -1.7381   -1.0726   -0.0052 C   0  0  0  0  0  0  0  0  0  0  0  0
    2.7205    1.2771   -0.0021 O   0  0  0  0  0  0  0  0  0  0  0  0
    3.3690   -0.8488    0.0030 O   0  0  0  0  0  0  0  0  0  0  0  0
    4.7261   -0.4012    0.0018 C   0  0  0  0  0  0  0  0  0  0  0  0
    0.7252   -1.3282   -0.0010 H   0  0  0  0  0  0  0  0  0  0  0  0
    0.3168    1.7104   -0.0005 H   0  0  0  0  0  0  0  0  0  0  0  0
   -2.1040    2.3061    0.0018 H   0  0  0  0  0  0  0  0  0  0  0  0
   -4.4728    1.6464    0.0024 H   0  0  0  0  0  0  0  0  0  0  0  0
   -5.0925   -0.7340    0.0015 H   0  0  0  0  0  0  0  0  0  0  0  0
   -3.3502   -2.4704    0.0011 H   0  0  0  0  0  0  0  0  0  0  0  0
   -0.9745   -1.8363   -0.0058 H   0  0  0  0  0  0  0  0  0  0  0  0
    4.9108    0.1965   -0.8909 H   0  0  0  0  0  0  0  0  0  0  0  0
    4.9097    0.2046    0.8891 H   0  0  0  0  0  0  0  0  0  0  0  0
    5.3931   -1.2634    0.0061 H   0  0  0  0  0  0  0  0  0  0  0  0
  1  2  1  0  0  0  0
  2  3  2  0  0  0  0
  3  4  1  0  0  0  0
  4  5  2  0  0  0  0
  5  6  1  0  0  0  0
  6  7  2  0  0  0  0
  7  8  1  0  0  0  0
  8  9  2  0  0  0  0
  4  9  1  0  0  0  0
  1 10  2  0  0  0  0
  1 11  1  0  0  0  0
 11 12  1  0  0  0  0
  2 13  1  0  0  0  0
  3 14  1  0  0  0  0
  5 15  1  0  0  0  0
  6 16  1  0  0  0  0
  7 17  1  0  0  0  0
  8 18  1  0  0  0  0
  9 19  1  0  0  0  0
 12 20  1  0  0  0  0
 12 21  1  0  0  0  0
 12 22  1  0  0  0  0
M  END
$$$$
