C9H11BrN2O2
APtclcactv12151716453D 0   0.00000     0.00000
 
 25 25  0  0  0  0  0  0  0  0999 V2000
   -0.0473   -0.6518   -0.5332 C   0  0  0  0  0  0  0  0  0  0  0  0
    0.2503    1.3628    0.7437 C   0  0  0  0  0  0  0  0  0  0  0  0
    1.3233   -0.8082   -0.6004 C   0  0  0  0  0  0  0  0  0  0  0  0
    1.6202    1.2015    0.6734 C   0  0  0  0  0  0  0  0  0  0  0  0
   -4.9899   -1.5100    0.2834 C   0  0  0  0  0  0  0  0  0  0  0  0
   -4.8829    1.4030   -1.2228 C   0  0  0  0  0  0  0  0  0  0  0  0
   -2.3625    1.4869    0.2173 H   0  0  0  0  0  0  0  0  0  0  0  0
   -0.5886    0.4355    0.1399 C   0  0  0  0  0  0  0  0  0  0  0  0
    2.1568    0.1172    0.0021 C   0  0  0  0  0  0  0  0  0  0  0  0
   -2.2953   -1.5969    0.3522 O   0  0  0  0  0  0  0  0  0  0  0  0
   -2.7794   -0.4850    0.2646 C   0  0  0  0  0  0  0  0  0  0  0  0
   -4.6818    0.9607    0.1211 O   0  0  0  0  0  0  0  0  0  0  0  0
   -1.9774    0.5967    0.2092 N   0  0  0  0  0  0  0  0  0  0  0  0
    4.0329   -0.1006   -0.0915 Br  0  0  0  0  0  0  0  0  0  0  0  0
   -4.1181   -0.3342    0.2231 N   0  0  0  0  0  0  0  0  0  0  0  0
   -0.6974   -1.3721   -1.0075 H   0  0  0  0  0  0  0  0  0  0  0  0
   -0.1681    2.2091    1.2682 H   0  0  0  0  0  0  0  0  0  0  0  0
   -5.2300   -1.7313    1.3233 H   0  0  0  0  0  0  0  0  0  0  0  0
   -5.9091   -1.3094   -0.2670 H   0  0  0  0  0  0  0  0  0  0  0  0
   -4.4792   -2.3642   -0.1613 H   0  0  0  0  0  0  0  0  0  0  0  0
    1.7448   -1.6539   -1.1235 H   0  0  0  0  0  0  0  0  0  0  0  0
    2.2730    1.9224    1.1429 H   0  0  0  0  0  0  0  0  0  0  0  0
   -3.9261    1.4267   -1.7444 H   0  0  0  0  0  0  0  0  0  0  0  0
   -5.5584    0.7169   -1.7338 H   0  0  0  0  0  0  0  0  0  0  0  0
   -5.3175    2.4025   -1.2151 H   0  0  0  0  0  0  0  0  0  0  0  0
 11 13  1  0  0  0  0
 11 15  1  0  0  0  0
 10 11  2  0  0  0  0
  8 13  1  0  0  0  0
  1  8  2  0  0  0  0
  2  8  1  0  0  0  0
 12 15  1  0  0  0  0
  5 15  1  0  0  0  0
  1  3  1  0  0  0  0
  2  4  2  0  0  0  0
  6 12  1  0  0  0  0
  3  9  2  0  0  0  0
  4  9  1  0  0  0  0
  9 14  1  0  0  0  0
  7 13  1  0  0  0  0
  1 16  1  0  0  0  0
  2 17  1  0  0  0  0
  5 18  1  0  0  0  0
  5 19  1  0  0  0  0
  5 20  1  0  0  0  0
  3 21  1  0  0  0  0
  4 22  1  0  0  0  0
  6 23  1  0  0  0  0
  6 24  1  0  0  0  0
  6 25  1  0  0  0  0
M  END
$$$$
