C15H22ClNO2
APtclcactv12211717093D 0   0.00000     0.00000
 
 41 41  0  0  0  0  0  0  0  0999 V2000
    3.1138   -0.6056    1.2791 C   0  0  0  0  0  0  0  0  0  0  0  0
    3.5476    0.6441   -0.7196 C   0  0  0  0  0  0  0  0  0  0  0  0
    3.9996    0.0516    0.4455 C   0  0  0  0  0  0  0  0  0  0  0  0
   -1.4930   -2.1112   -0.4974 C   0  0  0  0  0  0  0  0  0  0  0  0
   -0.3486    2.0329    0.5770 C   0  0  0  0  0  0  0  0  0  0  0  0
    0.8088   -1.3886    1.8598 C   0  0  0  0  0  0  0  0  0  0  0  0
   -1.2943   -0.7311   -2.5706 C   0  0  0  0  0  0  0  0  0  0  0  0
    1.7175    1.2272   -2.3233 C   0  0  0  0  0  0  0  0  0  0  0  0
   -3.6190   -2.0486    0.6079 C   0  0  0  0  0  0  0  0  0  0  0  0
    0.8731   -2.8930    1.5884 C   0  0  0  0  0  0  0  0  0  0  0  0
    1.3168   -0.0786   -0.2186 C   0  0  0  0  0  0  0  0  0  0  0  0
    1.7738   -0.6724    0.9504 C   0  0  0  0  0  0  0  0  0  0  0  0
    2.2092    0.5813   -1.0536 C   0  0  0  0  0  0  0  0  0  0  0  0
   -2.0726    0.7227   -0.3617 O   0  0  0  0  0  0  0  0  0  0  0  0
   -0.8833    0.8239   -0.1465 C   0  0  0  0  0  0  0  0  0  0  0  0
   -2.6618   -1.3488   -0.1895 O   0  0  0  0  0  0  0  0  0  0  0  0
   -0.5435   -1.2673   -1.3501 C   0  0  0  0  0  0  0  0  0  0  0  0
   -1.7237    3.0632    1.1233 Cl  0  0  0  0  0  0  0  0  0  0  0  0
   -0.0399   -0.1449   -0.5546 N   0  0  0  0  0  0  0  0  0  0  0  0
    0.2932   -1.8832   -1.6799 H   0  0  0  0  0  0  0  0  0  0  0  0
   -0.9927   -2.3985    0.4274 H   0  0  0  0  0  0  0  0  0  0  0  0
   -1.7784   -3.0067   -1.0494 H   0  0  0  0  0  0  0  0  0  0  0  0
   -2.0886   -0.0605   -2.2428 H   0  0  0  0  0  0  0  0  0  0  0  0
   -0.6018   -0.1874   -3.2132 H   0  0  0  0  0  0  0  0  0  0  0  0
   -1.7274   -1.5635   -3.1253 H   0  0  0  0  0  0  0  0  0  0  0  0
    0.2308    1.7115    1.4425 H   0  0  0  0  0  0  0  0  0  0  0  0
    0.2900    2.6058   -0.0953 H   0  0  0  0  0  0  0  0  0  0  0  0
   -0.2027   -1.0284    1.6722 H   0  0  0  0  0  0  0  0  0  0  0  0
    1.0766   -1.1950    2.8985 H   0  0  0  0  0  0  0  0  0  0  0  0
    3.4706   -1.0711    2.1860 H   0  0  0  0  0  0  0  0  0  0  0  0
    1.5129    2.2818   -2.1388 H   0  0  0  0  0  0  0  0  0  0  0  0
    2.4800    1.1349   -3.0967 H   0  0  0  0  0  0  0  0  0  0  0  0
    0.8040    0.7320   -2.6527 H   0  0  0  0  0  0  0  0  0  0  0  0
    4.2420    1.1571   -1.3684 H   0  0  0  0  0  0  0  0  0  0  0  0
   -3.9484   -2.9428    0.0788 H   0  0  0  0  0  0  0  0  0  0  0  0
   -3.1627   -2.3346    1.5556 H   0  0  0  0  0  0  0  0  0  0  0  0
   -4.4759   -1.4023    0.7977 H   0  0  0  0  0  0  0  0  0  0  0  0
    1.8812   -3.2557    1.7893 H   0  0  0  0  0  0  0  0  0  0  0  0
    0.1652   -3.4096    2.2365 H   0  0  0  0  0  0  0  0  0  0  0  0
    0.6187   -3.0853    0.5461 H   0  0  0  0  0  0  0  0  0  0  0  0
    5.0468    0.1027    0.7049 H   0  0  0  0  0  0  0  0  0  0  0  0
 17 19  1  0  0  0  0
  4 17  1  0  0  0  0
  7 17  1  0  0  0  0
 15 19  1  0  0  0  0
 11 19  1  0  0  0  0
  5 15  1  0  0  0  0
 14 15  2  0  0  0  0
 11 12  2  0  0  0  0
 11 13  1  0  0  0  0
  4 16  1  0  0  0  0
  5 18  1  0  0  0  0
  6 12  1  0  0  0  0
  1 12  1  0  0  0  0
  8 13  1  0  0  0  0
  2 13  2  0  0  0  0
  9 16  1  0  0  0  0
  6 10  1  0  0  0  0
  1  3  2  0  0  0  0
  2  3  1  0  0  0  0
 17 20  1  0  0  0  0
  4 21  1  0  0  0  0
  4 22  1  0  0  0  0
  7 23  1  0  0  0  0
  7 24  1  0  0  0  0
  7 25  1  0  0  0  0
  5 26  1  0  0  0  0
  5 27  1  0  0  0  0
  6 28  1  0  0  0  0
  6 29  1  0  0  0  0
  1 30  1  0  0  0  0
  8 31  1  0  0  0  0
  8 32  1  0  0  0  0
  8 33  1  0  0  0  0
  2 34  1  0  0  0  0
  9 35  1  0  0  0  0
  9 36  1  0  0  0  0
  9 37  1  0  0  0  0
 10 38  1  0  0  0  0
 10 39  1  0  0  0  0
 10 40  1  0  0  0  0
  3 41  1  0  0  0  0
M  END
$$$$
