C6H16FN2OP
APtclcactv12211717013D 0   0.00000     0.00000
 
 27 26  0  0  0  0  0  0  0  0999 V2000
    3.0860    1.3825    0.1535 C   0  0  0  0  0  0  0  0  0  0  0  0
    3.6786   -1.0213    0.4893 C   0  0  0  0  0  0  0  0  0  0  0  0
   -3.6737   -1.0409    0.4851 C   0  0  0  0  0  0  0  0  0  0  0  0
   -3.0935    1.3661    0.1499 C   0  0  0  0  0  0  0  0  0  0  0  0
    1.3680   -1.1557    1.2332 H   0  0  0  0  0  0  0  0  0  0  0  0
   -1.3675    0.3581    1.5899 H   0  0  0  0  0  0  0  0  0  0  0  0
   -0.0032    1.3425   -0.7102 O   0  0  0  0  0  0  0  0  0  0  0  0
    2.5960   -0.0585   -0.0024 C   0  0  0  0  0  0  0  0  0  0  0  0
   -2.5956   -0.0723   -0.0054 C   0  0  0  0  0  0  0  0  0  0  0  0
    0.0038   -1.1358   -1.4067 F   0  0  0  0  0  0  0  0  0  0  0  0
    1.3744   -0.2488    0.7910 N   0  0  0  0  0  0  0  0  0  0  0  0
   -1.3739   -0.2561    0.7894 N   0  0  0  0  0  0  0  0  0  0  0  0
    0.0002   -0.0297   -0.1556 P   0  0  0  0  0  0  0  0  0  0  0  0
    2.3820   -0.2579   -1.0524 H   0  0  0  0  0  0  0  0  0  0  0  0
   -2.3794   -0.2706   -1.0551 H   0  0  0  0  0  0  0  0  0  0  0  0
    3.9924    1.5237   -0.4352 H   0  0  0  0  0  0  0  0  0  0  0  0
    2.3147    2.0685   -0.1968 H   0  0  0  0  0  0  0  0  0  0  0  0
    3.2999    1.5819    1.2035 H   0  0  0  0  0  0  0  0  0  0  0  0
    3.3295   -2.0479    0.3782 H   0  0  0  0  0  0  0  0  0  0  0  0
    4.5850   -0.8801   -0.0994 H   0  0  0  0  0  0  0  0  0  0  0  0
    3.8926   -0.8219    1.5393 H   0  0  0  0  0  0  0  0  0  0  0  0
   -3.8899   -0.8426    1.5348 H   0  0  0  0  0  0  0  0  0  0  0  0
   -4.5802   -0.9045   -0.1047 H   0  0  0  0  0  0  0  0  0  0  0  0
   -3.3190   -2.0656    0.3744 H   0  0  0  0  0  0  0  0  0  0  0  0
   -2.3254    2.0561   -0.1994 H   0  0  0  0  0  0  0  0  0  0  0  0
   -4.0000    1.5025   -0.4398 H   0  0  0  0  0  0  0  0  0  0  0  0
   -3.3097    1.5644    1.1997 H   0  0  0  0  0  0  0  0  0  0  0  0
 11 13  1  0  0  0  0
 12 13  1  0  0  0  0
  7 13  2  0  0  0  0
 10 13  1  0  0  0  0
  8 11  1  0  0  0  0
  9 12  1  0  0  0  0
  1  8  1  0  0  0  0
  2  8  1  0  0  0  0
  3  9  1  0  0  0  0
  4  9  1  0  0  0  0
  5 11  1  0  0  0  0
  6 12  1  0  0  0  0
  8 14  1  0  0  0  0
  9 15  1  0  0  0  0
  1 16  1  0  0  0  0
  1 17  1  0  0  0  0
  1 18  1  0  0  0  0
  2 19  1  0  0  0  0
  2 20  1  0  0  0  0
  2 21  1  0  0  0  0
  3 22  1  0  0  0  0
  3 23  1  0  0  0  0
  3 24  1  0  0  0  0
  4 25  1  0  0  0  0
  4 26  1  0  0  0  0
  4 27  1  0  0  0  0
M  END
$$$$
