C13H18ClNO
APtclcactv12071713283D 0   0.00000     0.00000
 
 34 34  0  0  0  0  0  0  0  0999 V2000
    1.4200    0.6806    0.4891 C   0  0  0  0  0  0  0  0  0  0  0  0
    2.0061   -1.5048   -0.3223 C   0  0  0  0  0  0  0  0  0  0  0  0
    2.7475    1.0567    0.4269 C   0  0  0  0  0  0  0  0  0  0  0  0
    3.3321   -1.1236   -0.3831 C   0  0  0  0  0  0  0  0  0  0  0  0
   -3.6065    0.7336   -0.2202 C   0  0  0  0  0  0  0  0  0  0  0  0
   -5.0751    0.3468   -0.0343 C   0  0  0  0  0  0  0  0  0  0  0  0
   -2.9543   -0.8820    1.5706 C   0  0  0  0  0  0  0  0  0  0  0  0
   -3.0583   -1.6314   -0.8106 C   0  0  0  0  0  0  0  0  0  0  0  0
   -5.9647    1.5448   -0.3725 C   0  0  0  0  0  0  0  0  0  0  0  0
   -0.5330   -1.9026    0.3943 H   0  0  0  0  0  0  0  0  0  0  0  0
    1.0449   -0.6027    0.1143 C   0  0  0  0  0  0  0  0  0  0  0  0
    3.7034    0.1558   -0.0086 C   0  0  0  0  0  0  0  0  0  0  0  0
   -0.9796    1.0362   -0.4300 O   0  0  0  0  0  0  0  0  0  0  0  0
   -1.2703   -0.0833   -0.0650 C   0  0  0  0  0  0  0  0  0  0  0  0
    5.3711    0.6316   -0.0857 Cl  0  0  0  0  0  0  0  0  0  0  0  0
   -0.2997   -0.9866    0.1769 N   0  0  0  0  0  0  0  0  0  0  0  0
   -2.7168   -0.4643    0.1180 C   0  0  0  0  0  0  0  0  0  0  0  0
    0.6750    1.3827    0.8333 H   0  0  0  0  0  0  0  0  0  0  0  0
    1.7170   -2.5037   -0.6141 H   0  0  0  0  0  0  0  0  0  0  0  0
   -3.4373    1.0312   -1.2550 H   0  0  0  0  0  0  0  0  0  0  0  0
   -3.3633    1.5651    0.4414 H   0  0  0  0  0  0  0  0  0  0  0  0
   -2.7111   -0.0506    2.2322 H   0  0  0  0  0  0  0  0  0  0  0  0
   -4.0006   -1.1576    1.7030 H   0  0  0  0  0  0  0  0  0  0  0  0
   -2.3205   -1.7354    1.8115 H   0  0  0  0  0  0  0  0  0  0  0  0
   -2.4245   -2.4848   -0.5697 H   0  0  0  0  0  0  0  0  0  0  0  0
   -4.1045   -1.9069   -0.6782 H   0  0  0  0  0  0  0  0  0  0  0  0
   -2.8891   -1.3338   -1.8454 H   0  0  0  0  0  0  0  0  0  0  0  0
    3.0397    2.0548    0.7180 H   0  0  0  0  0  0  0  0  0  0  0  0
    4.0801   -1.8248   -0.7226 H   0  0  0  0  0  0  0  0  0  0  0  0
   -5.3183   -0.4846   -0.6959 H   0  0  0  0  0  0  0  0  0  0  0  0
   -5.2443    0.0492    1.0005 H   0  0  0  0  0  0  0  0  0  0  0  0
   -5.7215    2.3762    0.2891 H   0  0  0  0  0  0  0  0  0  0  0  0
   -5.7955    1.8423   -1.4073 H   0  0  0  0  0  0  0  0  0  0  0  0
   -7.0110    1.2692   -0.2401 H   0  0  0  0  0  0  0  0  0  0  0  0
 14 16  1  0  0  0  0
 14 17  1  0  0  0  0
 13 14  2  0  0  0  0
 11 16  1  0  0  0  0
  1 11  2  0  0  0  0
  2 11  1  0  0  0  0
  5 17  1  0  0  0  0
  7 17  1  0  0  0  0
  8 17  1  0  0  0  0
  1  3  1  0  0  0  0
  2  4  2  0  0  0  0
  5  6  1  0  0  0  0
  3 12  2  0  0  0  0
  4 12  1  0  0  0  0
  6  9  1  0  0  0  0
 12 15  1  0  0  0  0
 10 16  1  0  0  0  0
  1 18  1  0  0  0  0
  2 19  1  0  0  0  0
  5 20  1  0  0  0  0
  5 21  1  0  0  0  0
  7 22  1  0  0  0  0
  7 23  1  0  0  0  0
  7 24  1  0  0  0  0
  8 25  1  0  0  0  0
  8 26  1  0  0  0  0
  8 27  1  0  0  0  0
  3 28  1  0  0  0  0
  4 29  1  0  0  0  0
  6 30  1  0  0  0  0
  6 31  1  0  0  0  0
  9 32  1  0  0  0  0
  9 33  1  0  0  0  0
  9 34  1  0  0  0  0
M  END
$$$$
