C16H23NO6
APtclcactv12211717133D 0   0.00000     0.00000
 
 46 48  0  0  1  0  0  0  0  0999 V2000
   -2.7545   -0.1850   -0.8569 C   0  0  1  0  0  0  0  0  0  0  0  0
   -1.9104    1.0350   -0.4982 C   0  0  1  0  0  0  0  0  0  0  0  0
    2.3180    0.6356    0.7211 C   0  0  2  0  0  0  0  0  0  0  0  0
    2.5286   -0.8241    0.3446 C   0  0  1  0  0  0  0  0  0  0  0  0
    1.8384    1.5647   -0.3696 C   0  0  1  0  0  0  0  0  0  0  0  0
    3.6504    1.1841    1.2761 C   0  0  0  0  0  0  0  0  0  0  0  0
    3.9148   -1.0574   -0.2599 C   0  0  0  0  0  0  0  0  0  0  0  0
    2.4238    1.2920   -1.7459 C   0  0  0  0  0  0  0  0  0  0  0  0
    1.1716    1.5774    2.1197 H   0  0  0  0  0  0  0  0  0  0  0  0
    2.5834   -2.5551    1.4274 H   0  0  0  0  0  0  0  0  0  0  0  0
    1.6486   -1.5403   -1.7484 O   0  0  0  0  0  0  0  0  0  0  0  0
   -0.0970    2.7947   -0.7244 O   0  0  0  0  0  0  0  0  0  0  0  0
   -2.5772    1.6305    0.7573 C   0  0  0  0  0  0  0  0  0  0  0  0
   -4.0536    1.2618    0.5519 C   0  0  0  0  0  0  0  0  0  0  0  0
   -4.0003   -1.0694    0.9142 C   0  0  0  0  0  0  0  0  0  0  0  0
   -0.8355   -2.0345   -0.8798 C   0  0  0  0  0  0  0  0  0  0  0  0
    1.3700    0.6832    1.8097 O   0  0  0  0  0  0  0  0  0  0  0  0
    2.4605   -1.6055    1.5621 O   0  0  0  0  0  0  0  0  0  0  0  0
    1.4483   -1.3353   -0.5744 C   0  0  0  0  0  0  0  0  0  0  0  0
    0.3531    1.6985   -0.4479 C   0  0  0  0  0  0  0  0  0  0  0  0
   -0.5248    0.7008   -0.2468 O   0  0  0  0  0  0  0  0  0  0  0  0
    0.2471   -1.5891   -0.0246 O   0  0  0  0  0  0  0  0  0  0  0  0
   -2.8157   -1.9410    0.6291 C   0  0  0  0  0  0  0  0  0  0  0  0
   -2.1186   -1.4423   -0.3495 C   0  0  0  0  0  0  0  0  0  0  0  0
   -4.0939   -0.0489   -0.1918 N   0  0  0  0  0  0  0  0  0  0  0  0
   -2.9135   -0.2351   -1.9360 H   0  0  0  0  0  0  0  0  0  0  0  0
   -1.9630    1.7713   -1.3138 H   0  0  0  0  0  0  0  0  0  0  0  0
    2.2068    2.5851   -0.0846 H   0  0  0  0  0  0  0  0  0  0  0  0
   -2.1837    1.1635    1.6584 H   0  0  0  0  0  0  0  0  0  0  0  0
   -2.4479    2.7109    0.7882 H   0  0  0  0  0  0  0  0  0  0  0  0
   -4.5548    1.1471    1.5080 H   0  0  0  0  0  0  0  0  0  0  0  0
   -4.5483    2.0205   -0.0505 H   0  0  0  0  0  0  0  0  0  0  0  0
   -4.9130   -1.6629    0.9259 H   0  0  0  0  0  0  0  0  0  0  0  0
   -3.8706   -0.5572    1.8648 H   0  0  0  0  0  0  0  0  0  0  0  0
   -2.5728   -2.8522    1.1572 H   0  0  0  0  0  0  0  0  0  0  0  0
   -0.6695   -1.6897   -1.8991 H   0  0  0  0  0  0  0  0  0  0  0  0
   -0.8985   -3.1210   -0.8604 H   0  0  0  0  0  0  0  0  0  0  0  0
    3.9809    0.5622    2.1081 H   0  0  0  0  0  0  0  0  0  0  0  0
    4.4049    1.1698    0.4897 H   0  0  0  0  0  0  0  0  0  0  0  0
    3.5059    2.2074    1.6225 H   0  0  0  0  0  0  0  0  0  0  0  0
    4.0434   -2.1181   -0.4754 H   0  0  0  0  0  0  0  0  0  0  0  0
    4.0097   -0.4851   -1.1827 H   0  0  0  0  0  0  0  0  0  0  0  0
    4.6787   -0.7352    0.4477 H   0  0  0  0  0  0  0  0  0  0  0  0
    2.1620    0.2810   -2.0582 H   0  0  0  0  0  0  0  0  0  0  0  0
    2.0204    2.0091   -2.4608 H   0  0  0  0  0  0  0  0  0  0  0  0
    3.5086    1.3903   -1.7053 H   0  0  0  0  0  0  0  0  0  0  0  0
  2 21  1  0  0  0  0
 20 21  1  0  0  0  0
 19 22  1  0  0  0  0
 16 22  1  0  0  0  0
  3 17  1  0  0  0  0
  4 18  1  0  0  0  0
 11 19  2  0  0  0  0
 12 20  2  0  0  0  0
  1 25  1  0  0  0  0
 14 25  1  0  0  0  0
 15 25  1  0  0  0  0
  1  2  1  0  0  0  0
  1 24  1  0  0  0  0
  1 26  1  0  0  0  0
  2 13  1  0  0  0  0
 23 24  2  0  0  0  0
 16 24  1  0  0  0  0
  3  4  1  0  0  0  0
  3  5  1  0  0  0  0
  3  6  1  0  0  0  0
  4 19  1  0  0  0  0
  4  7  1  0  0  0  0
  5 20  1  0  0  0  0
  5  8  1  0  0  0  0
 13 14  1  0  0  0  0
 15 23  1  0  0  0  0
  9 17  1  0  0  0  0
 10 18  1  0  0  0  0
  2 27  1  0  0  0  0
  5 28  1  0  0  0  0
 13 29  1  0  0  0  0
 13 30  1  0  0  0  0
 14 31  1  0  0  0  0
 14 32  1  0  0  0  0
 15 33  1  0  0  0  0
 15 34  1  0  0  0  0
 23 35  1  0  0  0  0
 16 36  1  0  0  0  0
 16 37  1  0  0  0  0
  6 38  1  0  0  0  0
  6 39  1  0  0  0  0
  6 40  1  0  0  0  0
  7 41  1  0  0  0  0
  7 42  1  0  0  0  0
  7 43  1  0  0  0  0
  8 44  1  0  0  0  0
  8 45  1  0  0  0  0
  8 46  1  0  0  0  0
M  END
$$$$
