C15H10O7
APtclcactv12211717053D 0   0.00000     0.00000
 
 32 34  0  0  0  0  0  0  0  0999 V2000
    2.3963    1.8654    0.3196 C   0  0  0  0  0  0  0  0  0  0  0  0
    4.3613    0.4842    0.0923 C   0  0  0  0  0  0  0  0  0  0  0  0
   -2.8020   -0.6720    1.0957 C   0  0  0  0  0  0  0  0  0  0  0  0
   -4.0152    1.0997   -0.6756 C   0  0  0  0  0  0  0  0  0  0  0  0
   -4.1627   -0.4699    1.1463 C   0  0  0  0  0  0  0  0  0  0  0  0
    4.2893   -2.0934   -1.1497 H   0  0  0  0  0  0  0  0  0  0  0  0
   -0.5343   -3.3651   -0.3386 H   0  0  0  0  0  0  0  0  0  0  0  0
    4.8060    3.0300    1.3231 H   0  0  0  0  0  0  0  0  0  0  0  0
   -1.8716    1.1475   -2.5218 H   0  0  0  0  0  0  0  0  0  0  0  0
   -6.6240    0.0064   -0.2405 H   0  0  0  0  0  0  0  0  0  0  0  0
    3.5705   -0.6410   -0.0458 C   0  0  0  0  0  0  0  0  0  0  0  0
    3.7751    1.7323    0.2745 C   0  0  0  0  0  0  0  0  0  0  0  0
   -2.0290    0.0135    0.1534 C   0  0  0  0  0  0  0  0  0  0  0  0
   -2.6464    0.9053   -0.7367 C   0  0  0  0  0  0  0  0  0  0  0  0
   -4.7728    0.4145    0.2630 C   0  0  0  0  0  0  0  0  0  0  0  0
    1.7567   -2.8065   -0.3070 O   0  0  0  0  0  0  0  0  0  0  0  0
    4.1408   -1.8598   -0.2232 O   0  0  0  0  0  0  0  0  0  0  0  0
   -0.9660   -2.5091   -0.2123 O   0  0  0  0  0  0  0  0  0  0  0  0
    4.5611    2.8310    0.4090 O   0  0  0  0  0  0  0  0  0  0  0  0
   -1.9037    1.5746   -1.6549 O   0  0  0  0  0  0  0  0  0  0  0  0
   -6.1155    0.6084    0.3200 O   0  0  0  0  0  0  0  0  0  0  0  0
    1.2979   -1.6867   -0.1449 C   0  0  0  0  0  0  0  0  0  0  0  0
   -0.1008   -1.4657   -0.0865 C   0  0  0  0  0  0  0  0  0  0  0  0
   -0.5730   -0.1992    0.0959 C   0  0  0  0  0  0  0  0  0  0  0  0
    2.1759   -0.5141   -0.0017 C   0  0  0  0  0  0  0  0  0  0  0  0
    1.5861    0.7483    0.1825 C   0  0  0  0  0  0  0  0  0  0  0  0
    0.2419    0.8619    0.2247 O   0  0  0  0  0  0  0  0  0  0  0  0
    1.9527    2.8391    0.4660 H   0  0  0  0  0  0  0  0  0  0  0  0
    5.4370    0.3940    0.0593 H   0  0  0  0  0  0  0  0  0  0  0  0
   -2.3313   -1.3563    1.7861 H   0  0  0  0  0  0  0  0  0  0  0  0
   -4.4939    1.7855   -1.3589 H   0  0  0  0  0  0  0  0  0  0  0  0
   -4.7588   -1.0003    1.8743 H   0  0  0  0  0  0  0  0  0  0  0  0
 25 26  2  0  0  0  0
 22 25  1  0  0  0  0
 11 25  1  0  0  0  0
 26 27  1  0  0  0  0
  1 26  1  0  0  0  0
 22 23  1  0  0  0  0
 16 22  2  0  0  0  0
  2 11  2  0  0  0  0
 11 17  1  0  0  0  0
 24 27  1  0  0  0  0
  1 12  2  0  0  0  0
 18 23  1  0  0  0  0
 13 24  1  0  0  0  0
 12 19  1  0  0  0  0
 13 14  2  0  0  0  0
  3 13  1  0  0  0  0
  4 14  1  0  0  0  0
 14 20  1  0  0  0  0
  3  5  2  0  0  0  0
  4 15  2  0  0  0  0
 15 21  1  0  0  0  0
 23 24  2  0  0  0  0
  2 12  1  0  0  0  0
  5 15  1  0  0  0  0
  1 28  1  0  0  0  0
  2 29  1  0  0  0  0
  6 17  1  0  0  0  0
  7 18  1  0  0  0  0
  8 19  1  0  0  0  0
  3 30  1  0  0  0  0
  4 31  1  0  0  0  0
  9 20  1  0  0  0  0
  5 32  1  0  0  0  0
 10 21  1  0  0  0  0
M  END
$$$$
