C17H21NO4
APtclcactv12211717373D 0   0.00000     0.00000
 
 43 46  0  0  1  0  0  0  0  0999 V2000
  -14.4057   -1.1258   -0.6370 O   0  0  0  0  0  0  0  0  0  0  0  0
   -0.0251   -0.7288    2.3807 C   0  0  0  0  0  0  0  0  0  0  0  0
   -1.2546   -0.1092    2.2241 C   0  0  0  0  0  0  0  0  0  0  0  0
   -1.6256    0.5829    1.0724 C   0  0  0  0  0  0  0  0  0  0  0  0
   -2.8376    1.1908    0.9677 O   0  0  0  0  0  0  0  0  0  0  0  0
   -0.6950    0.6241    0.0302 C   0  0  0  0  0  0  0  0  0  0  0  0
    0.5050   -0.0526    0.2114 C   0  0  0  0  0  0  0  0  0  0  0  0
    1.2976    0.1172   -1.0607 C   0  0  1  0  0  0  0  0  0  0  0  0
    0.7194    1.4373   -1.5607 C   0  0  1  0  0  0  0  0  0  0  0  0
    0.8650    1.6011   -2.6284 H   0  0  0  0  0  0  0  0  0  0  0  0
   -0.6907    1.2544   -1.1673 O   0  0  0  0  0  0  0  0  0  0  0  0
    1.2038    2.6042   -0.6921 C   0  0  1  0  0  0  0  0  0  0  0  0
    1.2115    3.5074   -1.3022 H   0  0  0  0  0  0  0  0  0  0  0  0
    0.2712    2.7902    0.3746 O   0  0  0  0  0  0  0  0  0  0  0  0
    2.5554    2.4243   -0.1031 C   0  0  0  0  0  0  0  0  0  0  0  0
    3.2450    1.3284   -0.0756 C   0  0  0  0  0  0  0  0  0  0  0  0
    2.7633    0.0858   -0.6971 C   0  0  1  0  0  0  0  0  0  0  0  0
    3.2913   -0.0262   -1.6441 H   0  0  0  0  0  0  0  0  0  0  0  0
    3.0341   -1.1723    0.1169 C   0  0  1  0  0  0  0  0  0  0  0  0
    4.1031   -1.2156    0.3257 H   0  0  0  0  0  0  0  0  0  0  0  0
    2.2918   -1.2544    1.4404 C   0  0  0  0  0  0  0  0  0  0  0  0
    0.9055   -0.6954    1.3572 C   0  0  0  0  0  0  0  0  0  0  0  0
    2.6867   -2.3381   -0.7138 N   0  0  0  0  0  0  0  0  0  0  0  0
    3.0326   -3.5924   -0.0319 C   0  0  0  0  0  0  0  0  0  0  0  0
    1.2835   -2.3394   -1.1355 C   0  0  0  0  0  0  0  0  0  0  0  0
    0.9893   -1.0613   -1.9872 C   0  0  0  0  0  0  0  0  0  0  0  0
  -14.7061   -0.2156   -0.7643 H   0  0  0  0  0  0  0  0  0  0  0  0
  -13.5406   -1.3127   -1.0266 H   0  0  0  0  0  0  0  0  0  0  0  0
    0.2090   -1.2352    3.3055 H   0  0  0  0  0  0  0  0  0  0  0  0
   -1.9631   -0.1658    3.0372 H   0  0  0  0  0  0  0  0  0  0  0  0
   -2.8450    2.1084    1.2727 H   0  0  0  0  0  0  0  0  0  0  0  0
    0.5006    3.5118    0.9761 H   0  0  0  0  0  0  0  0  0  0  0  0
    3.0088    3.2950    0.3471 H   0  0  0  0  0  0  0  0  0  0  0  0
    4.1975    1.3231    0.4335 H   0  0  0  0  0  0  0  0  0  0  0  0
    2.2018   -2.3024    1.7265 H   0  0  0  0  0  0  0  0  0  0  0  0
    2.8751   -0.7358    2.2013 H   0  0  0  0  0  0  0  0  0  0  0  0
    2.3899   -3.7217    0.8389 H   0  0  0  0  0  0  0  0  0  0  0  0
    2.8904   -4.4290   -0.7159 H   0  0  0  0  0  0  0  0  0  0  0  0
    4.0742   -3.5571    0.2873 H   0  0  0  0  0  0  0  0  0  0  0  0
    1.0992   -3.2100   -1.7650 H   0  0  0  0  0  0  0  0  0  0  0  0
    0.6444   -2.3935   -0.2542 H   0  0  0  0  0  0  0  0  0  0  0  0
   -0.0687   -1.0238   -2.2467 H   0  0  0  0  0  0  0  0  0  0  0  0
    1.5945   -1.0721   -2.8937 H   0  0  0  0  0  0  0  0  0  0  0  0
  2  3  2  0  0  0  0
  3  4  1  0  0  0  0
  4  5  1  0  0  0  0
  4  6  2  0  0  0  0
  6  7  1  0  0  0  0
  7  8  1  0  0  0  0
  8  9  1  0  0  0  0
  9 10  1  0  0  0  0
  9 11  1  0  0  0  0
  6 11  1  0  0  0  0
  9 12  1  0  0  0  0
 12 13  1  0  0  0  0
 12 14  1  0  0  0  0
 12 15  1  0  0  0  0
 15 16  2  0  0  0  0
 16 17  1  0  0  0  0
 17 18  1  0  0  0  0
  8 17  1  0  0  0  0
 17 19  1  0  0  0  0
 19 20  1  0  0  0  0
 19 21  1  0  0  0  0
 21 22  1  0  0  0  0
  2 22  1  0  0  0  0
  7 22  2  0  0  0  0
 19 23  1  0  0  0  0
 23 24  1  0  0  0  0
 23 25  1  0  0  0  0
 25 26  1  0  0  0  0
  8 26  1  0  0  0  0
  1 27  1  0  0  0  0
  1 28  1  0  0  0  0
  2 29  1  0  0  0  0
  3 30  1  0  0  0  0
  5 31  1  0  0  0  0
 14 32  1  0  0  0  0
 15 33  1  0  0  0  0
 16 34  1  0  0  0  0
 21 35  1  0  0  0  0
 21 36  1  0  0  0  0
 24 37  1  0  0  0  0
 24 38  1  0  0  0  0
 24 39  1  0  0  0  0
 25 40  1  0  0  0  0
 25 41  1  0  0  0  0
 26 42  1  0  0  0  0
 26 43  1  0  0  0  0
M  END
$$$$
