C9H12ClN5O
APtclcactv12151716473D 0   0.00000     0.00000
 
 28 29  0  0  0  0  0  0  0  0999 V2000
   -1.2624   -3.4696   -0.4697 C   0  0  0  0  0  0  0  0  0  0  0  0
   -4.2186    0.0875    1.0596 C   0  0  0  0  0  0  0  0  0  0  0  0
    1.0910    0.2303   -2.0105 H   0  0  0  0  0  0  0  0  0  0  0  0
    3.6084    0.0624   -1.5941 H   0  0  0  0  0  0  0  0  0  0  0  0
   -0.3453    0.0895   -0.5325 C   0  0  0  0  0  0  0  0  0  0  0  0
   -1.0449   -1.1075   -0.3507 C   0  0  0  0  0  0  0  0  0  0  0  0
   -0.9698    1.2771   -0.1707 C   0  0  0  0  0  0  0  0  0  0  0  0
   -2.8247    0.0856    0.4868 C   0  0  0  0  0  0  0  0  0  0  0  0
    4.2177   -0.3291    0.4690 C   0  0  0  0  0  0  0  0  0  0  0  0
    3.2393   -0.4915    1.6492 C   0  0  0  0  0  0  0  0  0  0  0  0
   -0.4802   -2.2936   -0.6873 O   0  0  0  0  0  0  0  0  0  0  0  0
    2.0337   -0.1049   -0.2308 C   0  0  0  0  0  0  0  0  0  0  0  0
   -0.1552    2.7969   -0.3719 Cl  0  0  0  0  0  0  0  0  0  0  0  0
   -2.2705   -1.0641    0.1572 N   0  0  0  0  0  0  0  0  0  0  0  0
   -2.1966    1.2331    0.3300 N   0  0  0  0  0  0  0  0  0  0  0  0
    0.9538    0.0911   -1.0604 N   0  0  0  0  0  0  0  0  0  0  0  0
    3.3267   -0.0861   -0.6778 N   0  0  0  0  0  0  0  0  0  0  0  0
    1.9136   -0.3227    1.0383 N   0  0  0  0  0  0  0  0  0  0  0  0
   -1.5076   -3.5520    0.5891 H   0  0  0  0  0  0  0  0  0  0  0  0
   -2.1818   -3.4072   -1.0518 H   0  0  0  0  0  0  0  0  0  0  0  0
   -0.6944   -4.3464   -0.7805 H   0  0  0  0  0  0  0  0  0  0  0  0
   -4.1654    0.0040    2.1451 H   0  0  0  0  0  0  0  0  0  0  0  0
   -4.7205    1.0170    0.7908 H   0  0  0  0  0  0  0  0  0  0  0  0
   -4.7779   -0.7570    0.6572 H   0  0  0  0  0  0  0  0  0  0  0  0
    4.8774    0.5233    0.6308 H   0  0  0  0  0  0  0  0  0  0  0  0
    4.7957   -1.2412    0.3203 H   0  0  0  0  0  0  0  0  0  0  0  0
    3.3334   -1.4841    2.0897 H   0  0  0  0  0  0  0  0  0  0  0  0
    3.4150    0.2789    2.4000 H   0  0  0  0  0  0  0  0  0  0  0  0
  5  6  2  0  0  0  0
  5  7  1  0  0  0  0
  5 16  1  0  0  0  0
  6 14  1  0  0  0  0
  6 11  1  0  0  0  0
  7 15  2  0  0  0  0
  7 13  1  0  0  0  0
 12 16  1  0  0  0  0
  8 14  2  0  0  0  0
  1 11  1  0  0  0  0
 12 17  1  0  0  0  0
 12 18  2  0  0  0  0
  2  8  1  0  0  0  0
  9 17  1  0  0  0  0
 10 18  1  0  0  0  0
  8 15  1  0  0  0  0
  9 10  1  0  0  0  0
  3 16  1  0  0  0  0
  1 19  1  0  0  0  0
  1 20  1  0  0  0  0
  1 21  1  0  0  0  0
  4 17  1  0  0  0  0
  2 22  1  0  0  0  0
  2 23  1  0  0  0  0
  2 24  1  0  0  0  0
  9 25  1  0  0  0  0
  9 26  1  0  0  0  0
 10 27  1  0  0  0  0
 10 28  1  0  0  0  0
M  END
$$$$
