C6H6O4
APtclcactv12211716543D 0   0.00000     0.00000
 
 16 15  0  0  0  0  0  0  0  0999 V2000
    3.1037    0.0270   -0.0016 C   0  0  0  0  0  0  0  0  0  0  0  0
    1.7490   -0.5382   -0.0017 C   0  0  0  0  0  0  0  0  0  0  0  0
    0.6749    0.2816   -0.0006 C   0  0  0  0  0  0  0  0  0  0  0  0
   -0.6749   -0.2816   -0.0007 C   0  0  0  0  0  0  0  0  0  0  0  0
   -1.7490    0.5382    0.0003 C   0  0  0  0  0  0  0  0  0  0  0  0
   -3.1037   -0.0270    0.0003 C   0  0  0  0  0  0  0  0  0  0  0  0
   -3.2592   -1.2325   -0.0007 O   0  0  0  0  0  0  0  0  0  0  0  0
   -4.1756    0.7911    0.0013 O   0  0  0  0  0  0  0  0  0  0  0  0
    3.2592    1.2325   -0.0007 O   0  0  0  0  0  0  0  0  0  0  0  0
    4.1756   -0.7911    0.0030 O   0  0  0  0  0  0  0  0  0  0  0  0
    1.6108   -1.6093   -0.0025 H   0  0  0  0  0  0  0  0  0  0  0  0
    0.8131    1.3527    0.0002 H   0  0  0  0  0  0  0  0  0  0  0  0
   -0.8131   -1.3527   -0.0016 H   0  0  0  0  0  0  0  0  0  0  0  0
   -1.6108    1.6093    0.0012 H   0  0  0  0  0  0  0  0  0  0  0  0
   -5.0474    0.3726    0.0012 H   0  0  0  0  0  0  0  0  0  0  0  0
    5.0474   -0.3726    0.0028 H   0  0  0  0  0  0  0  0  0  0  0  0
  1  2  1  0  0  0  0
  2  3  2  0  0  0  0
  3  4  1  0  0  0  0
  4  5  2  0  0  0  0
  5  6  1  0  0  0  0
  6  7  2  0  0  0  0
  6  8  1  0  0  0  0
  1  9  2  0  0  0  0
  1 10  1  0  0  0  0
  2 11  1  0  0  0  0
  3 12  1  0  0  0  0
  4 13  1  0  0  0  0
  5 14  1  0  0  0  0
  8 15  1  0  0  0  0
 10 16  1  0  0  0  0
M  END
$$$$
