C12H16N2O2
APtclcactv12111705003D 0   0.00000     0.00000
 
 32 32  0  0  0  0  0  0  0  0999 V2000
    5.1357   -0.0726   -0.0678 C   0  0  0  0  0  0  0  0  0  0  0  0
    3.7060   -0.3835    0.0068 N   0  0  0  0  0  0  0  0  0  0  0  0
    2.8010    0.6141    0.0530 C   0  0  0  0  0  0  0  0  0  0  0  0
    1.3547    0.3050   -0.0103 C   0  0  0  0  0  0  0  0  0  0  0  0
    0.4857    1.1666   -0.6812 C   0  0  0  0  0  0  0  0  0  0  0  0
   -0.8608    0.8788   -0.7402 C   0  0  0  0  0  0  0  0  0  0  0  0
   -1.3552   -0.2745   -0.1294 C   0  0  0  0  0  0  0  0  0  0  0  0
   -2.8016   -0.5834   -0.1923 C   0  0  0  0  0  0  0  0  0  0  0  0
   -3.1740   -1.6723   -0.5828 O   0  0  0  0  0  0  0  0  0  0  0  0
   -3.7055    0.3430    0.1835 N   0  0  0  0  0  0  0  0  0  0  0  0
   -5.1367    0.0349    0.1277 C   0  0  0  0  0  0  0  0  0  0  0  0
   -3.2569    1.6581    0.6477 C   0  0  0  0  0  0  0  0  0  0  0  0
   -0.4860   -1.1368    0.5403 C   0  0  0  0  0  0  0  0  0  0  0  0
    0.8610   -0.8510    0.5959 C   0  0  0  0  0  0  0  0  0  0  0  0
    3.1723    1.7675    0.1467 O   0  0  0  0  0  0  0  0  0  0  0  0
    3.2601   -1.7787    0.0312 C   0  0  0  0  0  0  0  0  0  0  0  0
    5.5437    0.0054    0.9399 H   0  0  0  0  0  0  0  0  0  0  0  0
    5.6522   -0.8657   -0.6085 H   0  0  0  0  0  0  0  0  0  0  0  0
    5.2750    0.8737   -0.5904 H   0  0  0  0  0  0  0  0  0  0  0  0
    0.8683    2.0591   -1.1539 H   0  0  0  0  0  0  0  0  0  0  0  0
   -1.5334    1.5459   -1.2588 H   0  0  0  0  0  0  0  0  0  0  0  0
   -5.3501   -0.8179    0.7722 H   0  0  0  0  0  0  0  0  0  0  0  0
   -5.7078    0.8989    0.4673 H   0  0  0  0  0  0  0  0  0  0  0  0
   -5.4169   -0.2056   -0.8978 H   0  0  0  0  0  0  0  0  0  0  0  0
   -3.1267    2.3205   -0.2081 H   0  0  0  0  0  0  0  0  0  0  0  0
   -4.0022    2.0788    1.3227 H   0  0  0  0  0  0  0  0  0  0  0  0
   -2.3080    1.5534    1.1738 H   0  0  0  0  0  0  0  0  0  0  0  0
   -0.8686   -2.0295    1.0127 H   0  0  0  0  0  0  0  0  0  0  0  0
    1.5337   -1.5183    1.1142 H   0  0  0  0  0  0  0  0  0  0  0  0
    3.9809   -2.3999   -0.5005 H   0  0  0  0  0  0  0  0  0  0  0  0
    3.1813   -2.1170    1.0644 H   0  0  0  0  0  0  0  0  0  0  0  0
    2.2863   -1.8574   -0.4521 H   0  0  0  0  0  0  0  0  0  0  0  0
  1  2  1  0  0  0  0
  2  3  1  0  0  0  0
  3  4  1  0  0  0  0
  4  5  2  0  0  0  0
  5  6  1  0  0  0  0
  6  7  2  0  0  0  0
  7  8  1  0  0  0  0
  8  9  2  0  0  0  0
  8 10  1  0  0  0  0
 10 11  1  0  0  0  0
 10 12  1  0  0  0  0
  7 13  1  0  0  0  0
 13 14  2  0  0  0  0
  4 14  1  0  0  0  0
  3 15  2  0  0  0  0
  2 16  1  0  0  0  0
  1 17  1  0  0  0  0
  1 18  1  0  0  0  0
  1 19  1  0  0  0  0
  5 20  1  0  0  0  0
  6 21  1  0  0  0  0
 11 22  1  0  0  0  0
 11 23  1  0  0  0  0
 11 24  1  0  0  0  0
 12 25  1  0  0  0  0
 12 26  1  0  0  0  0
 12 27  1  0  0  0  0
 13 28  1  0  0  0  0
 14 29  1  0  0  0  0
 16 30  1  0  0  0  0
 16 31  1  0  0  0  0
 16 32  1  0  0  0  0
M  END
$$$$
