C14H28N2O2
APtclcactv12211717043D 0   0.00000     0.00000
 
 46 45  0  0  0  0  0  0  0  0999 V2000
    8.0334    0.5815    0.0000 C   0  0  0  0  0  0  0  0  0  0  0  0
    6.8239   -0.2450   -0.0000 N   0  0  0  0  0  0  0  0  0  0  0  0
    5.6089    0.3385    0.0000 C   0  0  0  0  0  0  0  0  0  0  0  0
    4.3647   -0.5117   -0.0000 C   0  0  0  0  0  0  0  0  0  0  0  0
    3.1298    0.3915    0.0000 C   0  0  0  0  0  0  0  0  0  0  0  0
    1.8665   -0.4717   -0.0000 C   0  0  0  0  0  0  0  0  0  0  0  0
    0.6316    0.4316   -0.0000 C   0  0  0  0  0  0  0  0  0  0  0  0
   -0.6316   -0.4316    0.0000 C   0  0  0  0  0  0  0  0  0  0  0  0
   -1.8665    0.4717   -0.0000 C   0  0  0  0  0  0  0  0  0  0  0  0
   -3.1298   -0.3915    0.0000 C   0  0  0  0  0  0  0  0  0  0  0  0
   -4.3647    0.5117   -0.0000 C   0  0  0  0  0  0  0  0  0  0  0  0
   -5.6089   -0.3385    0.0000 C   0  0  0  0  0  0  0  0  0  0  0  0
   -5.5170   -1.5478    0.0000 O   0  0  0  0  0  0  0  0  0  0  0  0
   -6.8239    0.2450   -0.0000 N   0  0  0  0  0  0  0  0  0  0  0  0
   -8.0334   -0.5815    0.0000 C   0  0  0  0  0  0  0  0  0  0  0  0
   -6.9349    1.7058   -0.0000 C   0  0  0  0  0  0  0  0  0  0  0  0
    5.5170    1.5478    0.0000 O   0  0  0  0  0  0  0  0  0  0  0  0
    6.9349   -1.7058   -0.0000 C   0  0  0  0  0  0  0  0  0  0  0  0
    8.3334    0.7865    1.0277 H   0  0  0  0  0  0  0  0  0  0  0  0
    8.8355    0.0517   -0.5138 H   0  0  0  0  0  0  0  0  0  0  0  0
    7.8313    1.5213   -0.5138 H   0  0  0  0  0  0  0  0  0  0  0  0
    4.3546   -1.1409   -0.8900 H   0  0  0  0  0  0  0  0  0  0  0  0
    4.3546   -1.1409    0.8900 H   0  0  0  0  0  0  0  0  0  0  0  0
    3.1399    1.0208    0.8900 H   0  0  0  0  0  0  0  0  0  0  0  0
    3.1399    1.0208   -0.8900 H   0  0  0  0  0  0  0  0  0  0  0  0
    1.8564   -1.1009   -0.8900 H   0  0  0  0  0  0  0  0  0  0  0  0
    1.8564   -1.1009    0.8900 H   0  0  0  0  0  0  0  0  0  0  0  0
    0.6417    1.0608    0.8900 H   0  0  0  0  0  0  0  0  0  0  0  0
    0.6417    1.0608   -0.8900 H   0  0  0  0  0  0  0  0  0  0  0  0
   -0.6417   -1.0608   -0.8900 H   0  0  0  0  0  0  0  0  0  0  0  0
   -0.6417   -1.0608    0.8900 H   0  0  0  0  0  0  0  0  0  0  0  0
   -1.8564    1.1009    0.8900 H   0  0  0  0  0  0  0  0  0  0  0  0
   -1.8564    1.1009   -0.8900 H   0  0  0  0  0  0  0  0  0  0  0  0
   -3.1399   -1.0208   -0.8900 H   0  0  0  0  0  0  0  0  0  0  0  0
   -3.1399   -1.0208    0.8900 H   0  0  0  0  0  0  0  0  0  0  0  0
   -4.3546    1.1409    0.8900 H   0  0  0  0  0  0  0  0  0  0  0  0
   -4.3546    1.1409   -0.8900 H   0  0  0  0  0  0  0  0  0  0  0  0
   -8.3334   -0.7865    1.0277 H   0  0  0  0  0  0  0  0  0  0  0  0
   -8.8355   -0.0517   -0.5138 H   0  0  0  0  0  0  0  0  0  0  0  0
   -7.8313   -1.5213   -0.5138 H   0  0  0  0  0  0  0  0  0  0  0  0
   -5.9377    2.1459   -0.0000 H   0  0  0  0  0  0  0  0  0  0  0  0
   -7.4747    2.0291   -0.8900 H   0  0  0  0  0  0  0  0  0  0  0  0
   -7.4747    2.0291    0.8900 H   0  0  0  0  0  0  0  0  0  0  0  0
    6.9624   -2.0681    1.0277 H   0  0  0  0  0  0  0  0  0  0  0  0
    6.0750   -2.1355   -0.5138 H   0  0  0  0  0  0  0  0  0  0  0  0
    7.8498   -2.0006   -0.5138 H   0  0  0  0  0  0  0  0  0  0  0  0
  1  2  1  0  0  0  0
  2  3  1  0  0  0  0
  3  4  1  0  0  0  0
  4  5  1  0  0  0  0
  5  6  1  0  0  0  0
  6  7  1  0  0  0  0
  7  8  1  0  0  0  0
  8  9  1  0  0  0  0
  9 10  1  0  0  0  0
 10 11  1  0  0  0  0
 11 12  1  0  0  0  0
 12 13  2  0  0  0  0
 12 14  1  0  0  0  0
 14 15  1  0  0  0  0
 14 16  1  0  0  0  0
  3 17  2  0  0  0  0
  2 18  1  0  0  0  0
  1 19  1  0  0  0  0
  1 20  1  0  0  0  0
  1 21  1  0  0  0  0
  4 22  1  0  0  0  0
  4 23  1  0  0  0  0
  5 24  1  0  0  0  0
  5 25  1  0  0  0  0
  6 26  1  0  0  0  0
  6 27  1  0  0  0  0
  7 28  1  0  0  0  0
  7 29  1  0  0  0  0
  8 30  1  0  0  0  0
  8 31  1  0  0  0  0
  9 32  1  0  0  0  0
  9 33  1  0  0  0  0
 10 34  1  0  0  0  0
 10 35  1  0  0  0  0
 11 36  1  0  0  0  0
 11 37  1  0  0  0  0
 15 38  1  0  0  0  0
 15 39  1  0  0  0  0
 15 40  1  0  0  0  0
 16 41  1  0  0  0  0
 16 42  1  0  0  0  0
 16 43  1  0  0  0  0
 18 44  1  0  0  0  0
 18 45  1  0  0  0  0
 18 46  1  0  0  0  0
M  END
$$$$
