C4H9NO
APtclcactv12211716403D 0   0.00000     0.00000
 
 15 14  0  0  0  0  0  0  0  0999 V2000
   -1.6263    0.9899    0.0500 C   0  0  0  0  0  0  0  0  0  0  0  0
   -0.6427   -0.0947   -0.0001 N   0  0  0  0  0  0  0  0  0  0  0  0
    0.6747    0.1900   -0.0038 C   0  0  0  0  0  0  0  0  0  0  0  0
    1.6867   -0.9253    0.0517 C   0  0  0  0  0  0  0  0  0  0  0  0
    1.0457    1.3437   -0.0518 O   0  0  0  0  0  0  0  0  0  0  0  0
   -1.0910   -1.4886   -0.0462 C   0  0  0  0  0  0  0  0  0  0  0  0
   -1.8812    1.2963   -0.9645 H   0  0  0  0  0  0  0  0  0  0  0  0
   -2.5242    0.6427    0.5611 H   0  0  0  0  0  0  0  0  0  0  0  0
   -1.2053    1.8375    0.5906 H   0  0  0  0  0  0  0  0  0  0  0  0
    1.1731   -1.8851   -0.0031 H   0  0  0  0  0  0  0  0  0  0  0  0
    2.3753   -0.8332   -0.7881 H   0  0  0  0  0  0  0  0  0  0  0  0
    2.2437   -0.8642    0.9867 H   0  0  0  0  0  0  0  0  0  0  0  0
   -1.1200   -1.8269   -1.0820 H   0  0  0  0  0  0  0  0  0  0  0  0
   -0.3990   -2.1118    0.5203 H   0  0  0  0  0  0  0  0  0  0  0  0
   -2.0876   -1.5643    0.3887 H   0  0  0  0  0  0  0  0  0  0  0  0
  1  2  1  0  0  0  0
  2  3  1  0  0  0  0
  3  4  1  0  0  0  0
  3  5  2  0  0  0  0
  2  6  1  0  0  0  0
  1  7  1  0  0  0  0
  1  8  1  0  0  0  0
  1  9  1  0  0  0  0
  4 10  1  0  0  0  0
  4 11  1  0  0  0  0
  4 12  1  0  0  0  0
  6 13  1  0  0  0  0
  6 14  1  0  0  0  0
  6 15  1  0  0  0  0
M  END
$$$$
