C8H11Cl2NO
APtclcactv12151716333D 0   0.00000     0.00000
 
 23 22  0  0  0  0  0  0  0  0999 V2000
    0.9546   -1.2003    0.9052 C   0  0  0  0  0  0  0  0  0  0  0  0
    1.5901   -1.7862   -0.3293 C   0  0  0  0  0  0  0  0  0  0  0  0
    2.6758   -2.5119   -0.2256 C   0  0  0  0  0  0  0  0  0  0  0  0
    0.8046    0.2473    0.7370 N   0  0  0  0  0  0  0  0  0  0  0  0
   -0.4084    0.7732    0.4755 C   0  0  0  0  0  0  0  0  0  0  0  0
   -1.6324   -0.1056    0.5021 C   0  0  0  0  0  0  0  0  0  0  0  0
   -3.0092    0.7577   -0.2789 Cl  0  0  0  0  0  0  0  0  0  0  0  0
   -1.2949   -1.6333   -0.3939 Cl  0  0  0  0  0  0  0  0  0  0  0  0
   -0.5150    1.9538    0.2187 O   0  0  0  0  0  0  0  0  0  0  0  0
    1.9732    1.1232    0.8530 C   0  0  0  0  0  0  0  0  0  0  0  0
    2.6809    1.1952   -0.4755 C   0  0  0  0  0  0  0  0  0  0  0  0
    2.9078    2.3580   -1.0347 C   0  0  0  0  0  0  0  0  0  0  0  0
   -0.0256   -1.6517    1.0584 H   0  0  0  0  0  0  0  0  0  0  0  0
    1.5868   -1.4020    1.7699 H   0  0  0  0  0  0  0  0  0  0  0  0
    1.1504   -1.6079   -1.2995 H   0  0  0  0  0  0  0  0  0  0  0  0
    3.1155   -2.6902    0.7446 H   0  0  0  0  0  0  0  0  0  0  0  0
    3.1312   -2.9318   -1.1103 H   0  0  0  0  0  0  0  0  0  0  0  0
   -1.8893   -0.3395    1.5353 H   0  0  0  0  0  0  0  0  0  0  0  0
    1.6509    2.1219    1.1476 H   0  0  0  0  0  0  0  0  0  0  0  0
    2.6531    0.7241    1.6057 H   0  0  0  0  0  0  0  0  0  0  0  0
    3.0011    0.2882   -0.9667 H   0  0  0  0  0  0  0  0  0  0  0  0
    3.4149    2.4096   -1.9868 H   0  0  0  0  0  0  0  0  0  0  0  0
    2.5876    3.2650   -0.5435 H   0  0  0  0  0  0  0  0  0  0  0  0
  1  2  1  0  0  0  0
  2  3  2  0  0  0  0
  1  4  1  0  0  0  0
  4  5  1  0  0  0  0
  5  6  1  0  0  0  0
  6  7  1  0  0  0  0
  6  8  1  0  0  0  0
  5  9  2  0  0  0  0
  4 10  1  0  0  0  0
 10 11  1  0  0  0  0
 11 12  2  0  0  0  0
  1 13  1  0  0  0  0
  1 14  1  0  0  0  0
  2 15  1  0  0  0  0
  3 16  1  0  0  0  0
  3 17  1  0  0  0  0
  6 18  1  0  0  0  0
 10 19  1  0  0  0  0
 10 20  1  0  0  0  0
 11 21  1  0  0  0  0
 12 22  1  0  0  0  0
 12 23  1  0  0  0  0
M  END
$$$$
