C13H19N3O4
APtclcactv12091702533D 0   0.00000     0.00000
 
 39 39  0  0  0  0  0  0  0  0999 V2000
    1.7129   -1.8431    1.5308 C   0  0  0  0  0  0  0  0  0  0  0  0
    0.3178   -1.6707    2.1349 C   0  0  0  0  0  0  0  0  0  0  0  0
    1.9689   -0.7302    0.5127 C   0  0  0  0  0  0  0  0  0  0  0  0
    3.4106   -0.8218    0.0087 C   0  0  0  0  0  0  0  0  0  0  0  0
    3.7048    0.3630   -0.9135 C   0  0  0  0  0  0  0  0  0  0  0  0
    1.0442   -0.8794   -0.6189 N   0  0  0  0  0  0  0  0  0  0  0  0
   -0.1589   -0.2137   -0.3733 C   0  0  0  0  0  0  0  0  0  0  0  0
   -0.1639    1.1584   -0.1582 C   0  0  0  0  0  0  0  0  0  0  0  0
   -1.3554    1.8136    0.0844 C   0  0  0  0  0  0  0  0  0  0  0  0
   -2.5423    1.1049    0.1138 C   0  0  0  0  0  0  0  0  0  0  0  0
   -2.5409   -0.2615   -0.0999 C   0  0  0  0  0  0  0  0  0  0  0  0
   -1.3541   -0.9218   -0.3491 C   0  0  0  0  0  0  0  0  0  0  0  0
   -1.3537   -2.3841   -0.5783 N   0  3  0  0  0  0  0  0  0  0  0  0
   -2.4043   -3.0004   -0.5814 O   0  0  0  0  0  0  0  0  0  0  0  0
   -0.3027   -2.9712   -0.7637 O   0  5  0  0  0  0  0  0  0  0  0  0
   -3.8402    1.8230    0.3799 C   0  0  0  0  0  0  0  0  0  0  0  0
   -1.3617    3.3024    0.3179 C   0  0  0  0  0  0  0  0  0  0  0  0
    1.1064    1.9177   -0.1886 N   0  3  0  0  0  0  0  0  0  0  0  0
    1.5752    2.2781   -1.2534 O   0  0  0  0  0  0  0  0  0  0  0  0
    1.6829    2.1821    0.8513 O   0  5  0  0  0  0  0  0  0  0  0  0
    2.4605   -1.7906    2.3223 H   0  0  0  0  0  0  0  0  0  0  0  0
    1.7767   -2.8114    1.0344 H   0  0  0  0  0  0  0  0  0  0  0  0
   -0.4354   -1.8666    1.3716 H   0  0  0  0  0  0  0  0  0  0  0  0
    0.1899   -2.3716    2.9598 H   0  0  0  0  0  0  0  0  0  0  0  0
    0.2049   -0.6512    2.5035 H   0  0  0  0  0  0  0  0  0  0  0  0
    1.8105    0.2388    0.9861 H   0  0  0  0  0  0  0  0  0  0  0  0
    4.0943   -0.8002    0.8573 H   0  0  0  0  0  0  0  0  0  0  0  0
    3.5444   -1.7529   -0.5421 H   0  0  0  0  0  0  0  0  0  0  0  0
    4.7319    0.2977   -1.2726 H   0  0  0  0  0  0  0  0  0  0  0  0
    3.0211    0.3415   -1.7622 H   0  0  0  0  0  0  0  0  0  0  0  0
    3.5710    1.2941   -0.3627 H   0  0  0  0  0  0  0  0  0  0  0  0
    1.4671   -0.5573   -1.4764 H   0  0  0  0  0  0  0  0  0  0  0  0
   -3.4697   -0.8121   -0.0759 H   0  0  0  0  0  0  0  0  0  0  0  0
   -4.2724    2.1541   -0.5644 H   0  0  0  0  0  0  0  0  0  0  0  0
   -4.5338    1.1468    0.8796 H   0  0  0  0  0  0  0  0  0  0  0  0
   -3.6532    2.6876    1.0168 H   0  0  0  0  0  0  0  0  0  0  0  0
   -1.4820    3.8189   -0.6344 H   0  0  0  0  0  0  0  0  0  0  0  0
   -2.1879    3.5629    0.9794 H   0  0  0  0  0  0  0  0  0  0  0  0
   -0.4199    3.6021    0.7774 H   0  0  0  0  0  0  0  0  0  0  0  0
  1  2  1  0  0  0  0
  1  3  1  0  0  0  0
  3  4  1  0  0  0  0
  4  5  1  0  0  0  0
  3  6  1  0  0  0  0
  6  7  1  0  0  0  0
  7  8  2  0  0  0  0
  8  9  1  0  0  0  0
  9 10  2  0  0  0  0
 10 11  1  0  0  0  0
 11 12  2  0  0  0  0
  7 12  1  0  0  0  0
 12 13  1  0  0  0  0
 13 14  2  0  0  0  0
 13 15  1  0  0  0  0
 10 16  1  0  0  0  0
  9 17  1  0  0  0  0
  8 18  1  0  0  0  0
 18 19  2  0  0  0  0
 18 20  1  0  0  0  0
  1 21  1  0  0  0  0
  1 22  1  0  0  0  0
  2 23  1  0  0  0  0
  2 24  1  0  0  0  0
  2 25  1  0  0  0  0
  3 26  1  0  0  0  0
  4 27  1  0  0  0  0
  4 28  1  0  0  0  0
  5 29  1  0  0  0  0
  5 30  1  0  0  0  0
  5 31  1  0  0  0  0
  6 32  1  0  0  0  0
 11 33  1  0  0  0  0
 16 34  1  0  0  0  0
 16 35  1  0  0  0  0
 16 36  1  0  0  0  0
 17 37  1  0  0  0  0
 17 38  1  0  0  0  0
 17 39  1  0  0  0  0
M  CHG  4  13   1  15  -1  18   1  20  -1
M  END
$$$$
