C12H10ClNO2S
APtclcactv12111704563D 0   0.00000     0.00000
 
 27 28  0  0  0  0  0  0  0  0999 V2000
   -2.4222   -0.6753    2.0718 Cl  0  0  0  0  0  0  0  0  0  0  0  0
   -2.3075    0.1375    0.5421 C   0  0  0  0  0  0  0  0  0  0  0  0
   -1.3879   -0.2924   -0.4072 C   0  0  0  0  0  0  0  0  0  0  0  0
   -1.3000    0.3606   -1.6297 C   0  0  0  0  0  0  0  0  0  0  0  0
   -2.1260    1.4345   -1.8985 C   0  0  0  0  0  0  0  0  0  0  0  0
   -3.0398    1.8604   -0.9519 C   0  0  0  0  0  0  0  0  0  0  0  0
   -3.1345    1.2095    0.2643 C   0  0  0  0  0  0  0  0  0  0  0  0
   -0.5532   -1.3790   -0.1320 N   0  0  0  0  0  0  0  0  0  0  0  0
    1.0003   -1.3958   -0.7052 S   0  0  0  0  0  0  0  0  0  0  0  0
    1.6224   -2.5439   -0.1447 O   0  0  0  0  0  0  0  0  0  0  0  0
    0.9143   -1.1634   -2.1044 O   0  0  0  0  0  0  0  0  0  0  0  0
    1.8247    0.0019   -0.0184 C   0  0  0  0  0  0  0  0  0  0  0  0
    2.4873   -0.1111    1.1895 C   0  0  0  0  0  0  0  0  0  0  0  0
    3.1340    0.9855    1.7283 C   0  0  0  0  0  0  0  0  0  0  0  0
    3.1186    2.1948    1.0589 C   0  0  0  0  0  0  0  0  0  0  0  0
    2.4568    2.3075   -0.1495 C   0  0  0  0  0  0  0  0  0  0  0  0
    1.8137    1.2099   -0.6904 C   0  0  0  0  0  0  0  0  0  0  0  0
   -0.5862    0.0293   -2.3694 H   0  0  0  0  0  0  0  0  0  0  0  0
   -2.0579    1.9425   -2.8491 H   0  0  0  0  0  0  0  0  0  0  0  0
   -3.6838    2.7008   -1.1648 H   0  0  0  0  0  0  0  0  0  0  0  0
   -3.8495    1.5444    1.0012 H   0  0  0  0  0  0  0  0  0  0  0  0
   -0.8839   -2.1234    0.3948 H   0  0  0  0  0  0  0  0  0  0  0  0
    2.4993   -1.0559    1.7125 H   0  0  0  0  0  0  0  0  0  0  0  0
    3.6510    0.8974    2.6724 H   0  0  0  0  0  0  0  0  0  0  0  0
    3.6232    3.0517    1.4801 H   0  0  0  0  0  0  0  0  0  0  0  0
    2.4445    3.2525   -0.6724 H   0  0  0  0  0  0  0  0  0  0  0  0
    1.2967    1.2979   -1.6345 H   0  0  0  0  0  0  0  0  0  0  0  0
  1  2  1  0  0  0  0
  2  3  2  0  0  0  0
  3  4  1  0  0  0  0
  4  5  2  0  0  0  0
  5  6  1  0  0  0  0
  6  7  2  0  0  0  0
  2  7  1  0  0  0  0
  3  8  1  0  0  0  0
  8  9  1  0  0  0  0
  9 10  2  0  0  0  0
  9 11  2  0  0  0  0
  9 12  1  0  0  0  0
 12 13  2  0  0  0  0
 13 14  1  0  0  0  0
 14 15  2  0  0  0  0
 15 16  1  0  0  0  0
 16 17  2  0  0  0  0
 12 17  1  0  0  0  0
  4 18  1  0  0  0  0
  5 19  1  0  0  0  0
  6 20  1  0  0  0  0
  7 21  1  0  0  0  0
  8 22  1  0  0  0  0
 13 23  1  0  0  0  0
 14 24  1  0  0  0  0
 15 25  1  0  0  0  0
 16 26  1  0  0  0  0
 17 27  1  0  0  0  0
M  END
$$$$
