C10H14N2O
APtclcactv12211717263D 0   0.00000     0.00000
 
 27 27  0  0  0  0  0  0  0  0999 V2000
    4.5050   -0.6871    0.2247 C   0  0  0  0  0  0  0  0  0  0  0  0
    3.0908   -0.3522    0.4386 N   0  0  0  0  0  0  0  0  0  0  0  0
    2.9519    0.9654    1.0731 C   0  0  0  0  0  0  0  0  0  0  0  0
    2.3393   -0.4112   -0.8222 C   0  0  0  0  0  0  0  0  0  0  0  0
    0.9257   -0.6690   -0.5366 N   0  0  0  0  0  0  0  0  0  0  0  0
    0.0590    0.3587   -0.4416 C   0  0  0  0  0  0  0  0  0  0  0  0
   -1.3675    0.0984   -0.1533 C   0  0  0  0  0  0  0  0  0  0  0  0
   -2.2677    1.1605   -0.0543 C   0  0  0  0  0  0  0  0  0  0  0  0
   -3.5976    0.9108    0.2144 C   0  0  0  0  0  0  0  0  0  0  0  0
   -4.0396   -0.3890    0.3860 C   0  0  0  0  0  0  0  0  0  0  0  0
   -3.1525   -1.4464    0.2891 C   0  0  0  0  0  0  0  0  0  0  0  0
   -1.8210   -1.2108    0.0151 C   0  0  0  0  0  0  0  0  0  0  0  0
    0.4502    1.4996   -0.5928 O   0  0  0  0  0  0  0  0  0  0  0  0
    5.0382   -0.6358    1.1740 H   0  0  0  0  0  0  0  0  0  0  0  0
    4.5822   -1.6957   -0.1813 H   0  0  0  0  0  0  0  0  0  0  0  0
    4.9441    0.0218   -0.4773 H   0  0  0  0  0  0  0  0  0  0  0  0
    3.3982    1.7260    0.4325 H   0  0  0  0  0  0  0  0  0  0  0  0
    1.8951    1.1884    1.2199 H   0  0  0  0  0  0  0  0  0  0  0  0
    3.4594    0.9595    2.0377 H   0  0  0  0  0  0  0  0  0  0  0  0
    2.4363    0.5388   -1.3478 H   0  0  0  0  0  0  0  0  0  0  0  0
    2.7364   -1.2130   -1.4447 H   0  0  0  0  0  0  0  0  0  0  0  0
    0.6136   -1.5795   -0.4159 H   0  0  0  0  0  0  0  0  0  0  0  0
   -1.9238    2.1756   -0.1873 H   0  0  0  0  0  0  0  0  0  0  0  0
   -4.2951    1.7317    0.2914 H   0  0  0  0  0  0  0  0  0  0  0  0
   -5.0816   -0.5791    0.5969 H   0  0  0  0  0  0  0  0  0  0  0  0
   -3.5039   -2.4587    0.4241 H   0  0  0  0  0  0  0  0  0  0  0  0
   -1.1296   -2.0370   -0.0606 H   0  0  0  0  0  0  0  0  0  0  0  0
  1  2  1  0  0  0  0
  2  3  1  0  0  0  0
  2  4  1  0  0  0  0
  4  5  1  0  0  0  0
  5  6  1  0  0  0  0
  6  7  1  0  0  0  0
  7  8  2  0  0  0  0
  8  9  1  0  0  0  0
  9 10  2  0  0  0  0
 10 11  1  0  0  0  0
 11 12  2  0  0  0  0
  7 12  1  0  0  0  0
  6 13  2  0  0  0  0
  1 14  1  0  0  0  0
  1 15  1  0  0  0  0
  1 16  1  0  0  0  0
  3 17  1  0  0  0  0
  3 18  1  0  0  0  0
  3 19  1  0  0  0  0
  4 20  1  0  0  0  0
  4 21  1  0  0  0  0
  5 22  1  0  0  0  0
  8 23  1  0  0  0  0
  9 24  1  0  0  0  0
 10 25  1  0  0  0  0
 11 26  1  0  0  0  0
 12 27  1  0  0  0  0
M  END
$$$$
