C13H18N2O
APtclcactv12111705003D 0   0.00000     0.00000
 
 34 35  0  0  0  0  0  0  0  0999 V2000
   -2.2507   -0.5116   -0.1045 N   0  0  0  0  0  0  0  0  0  0  0  0
   -3.6284   -0.7685   -0.5433 C   0  0  0  0  0  0  0  0  0  0  0  0
   -4.6066   -0.1014    0.4263 C   0  0  0  0  0  0  0  0  0  0  0  0
   -4.3349    1.4051    0.4618 C   0  0  0  0  0  0  0  0  0  0  0  0
   -2.8799    1.6437    0.8747 C   0  0  0  0  0  0  0  0  0  0  0  0
   -1.9517    0.9261   -0.1078 C   0  0  0  0  0  0  0  0  0  0  0  0
   -1.2882   -1.2514   -0.9317 C   0  0  0  0  0  0  0  0  0  0  0  0
    0.0073   -0.5681   -0.9026 N   0  0  0  0  0  0  0  0  0  0  0  0
    0.9537   -0.9552   -0.0245 C   0  0  0  0  0  0  0  0  0  0  0  0
    2.2612   -0.2656    0.0049 C   0  0  0  0  0  0  0  0  0  0  0  0
    3.2434   -0.6640    0.9130 C   0  0  0  0  0  0  0  0  0  0  0  0
    4.4615   -0.0166    0.9349 C   0  0  0  0  0  0  0  0  0  0  0  0
    4.7103    1.0256    0.0596 C   0  0  0  0  0  0  0  0  0  0  0  0
    3.7409    1.4255   -0.8430 C   0  0  0  0  0  0  0  0  0  0  0  0
    2.5207    0.7828   -0.8792 C   0  0  0  0  0  0  0  0  0  0  0  0
    0.7323   -1.8712    0.7432 O   0  0  0  0  0  0  0  0  0  0  0  0
   -3.7731   -0.3602   -1.5435 H   0  0  0  0  0  0  0  0  0  0  0  0
   -3.8098   -1.8431   -0.5601 H   0  0  0  0  0  0  0  0  0  0  0  0
   -5.6287   -0.2790    0.0917 H   0  0  0  0  0  0  0  0  0  0  0  0
   -4.4720   -0.5191    1.4240 H   0  0  0  0  0  0  0  0  0  0  0  0
   -4.5073    1.8298   -0.5271 H   0  0  0  0  0  0  0  0  0  0  0  0
   -5.0007    1.8784    1.1836 H   0  0  0  0  0  0  0  0  0  0  0  0
   -2.6683    2.7129    0.8605 H   0  0  0  0  0  0  0  0  0  0  0  0
   -2.7180    1.2535    1.8795 H   0  0  0  0  0  0  0  0  0  0  0  0
   -0.9153    1.0821    0.1916 H   0  0  0  0  0  0  0  0  0  0  0  0
   -2.1043    1.3264   -1.1101 H   0  0  0  0  0  0  0  0  0  0  0  0
   -1.1746   -2.2625   -0.5406 H   0  0  0  0  0  0  0  0  0  0  0  0
   -1.6516   -1.2977   -1.9584 H   0  0  0  0  0  0  0  0  0  0  0  0
    0.1840    0.1628   -1.5153 H   0  0  0  0  0  0  0  0  0  0  0  0
    3.0502   -1.4769    1.5972 H   0  0  0  0  0  0  0  0  0  0  0  0
    5.2224   -0.3239    1.6371 H   0  0  0  0  0  0  0  0  0  0  0  0
    5.6653    1.5296    0.0814 H   0  0  0  0  0  0  0  0  0  0  0  0
    3.9414    2.2397   -1.5236 H   0  0  0  0  0  0  0  0  0  0  0  0
    1.7650    1.0956   -1.5845 H   0  0  0  0  0  0  0  0  0  0  0  0
  1  2  1  0  0  0  0
  2  3  1  0  0  0  0
  3  4  1  0  0  0  0
  4  5  1  0  0  0  0
  5  6  1  0  0  0  0
  1  6  1  0  0  0  0
  1  7  1  0  0  0  0
  7  8  1  0  0  0  0
  8  9  1  0  0  0  0
  9 10  1  0  0  0  0
 10 11  2  0  0  0  0
 11 12  1  0  0  0  0
 12 13  2  0  0  0  0
 13 14  1  0  0  0  0
 14 15  2  0  0  0  0
 10 15  1  0  0  0  0
  9 16  2  0  0  0  0
  2 17  1  0  0  0  0
  2 18  1  0  0  0  0
  3 19  1  0  0  0  0
  3 20  1  0  0  0  0
  4 21  1  0  0  0  0
  4 22  1  0  0  0  0
  5 23  1  0  0  0  0
  5 24  1  0  0  0  0
  6 25  1  0  0  0  0
  6 26  1  0  0  0  0
  7 27  1  0  0  0  0
  7 28  1  0  0  0  0
  8 29  1  0  0  0  0
 11 30  1  0  0  0  0
 12 31  1  0  0  0  0
 13 32  1  0  0  0  0
 14 33  1  0  0  0  0
 15 34  1  0  0  0  0
M  END
$$$$
