C13H17NO3
APtclcactv12071713273D 0   0.00000     0.00000
 
 34 34  0  0  1  0  0  0  0  0999 V2000
   -4.1084   -0.9249    0.0939 C   0  0  0  0  0  0  0  0  0  0  0  0
   -4.8119   -2.2827    0.0452 C   0  0  0  0  0  0  0  0  0  0  0  0
   -2.6992   -1.0987   -0.2098 O   0  0  0  0  0  0  0  0  0  0  0  0
   -1.9349    0.0047   -0.2084 C   0  0  0  0  0  0  0  0  0  0  0  0
   -0.4629   -0.0978   -0.5147 C   0  0  1  0  0  0  0  0  0  0  0  0
   -0.3090   -0.8118   -1.3238 H   0  0  0  0  0  0  0  0  0  0  0  0
    0.0444    1.2156   -0.9193 N   0  0  0  0  0  0  0  0  0  0  0  0
   -0.0399    2.2607   -0.0725 C   0  0  0  0  0  0  0  0  0  0  0  0
    0.4819    3.6118   -0.4887 C   0  0  0  0  0  0  0  0  0  0  0  0
   -0.5358    2.1138    1.0246 O   0  0  0  0  0  0  0  0  0  0  0  0
    0.2857   -0.5716    0.7327 C   0  0  0  0  0  0  0  0  0  0  0  0
    1.7375   -0.7920    0.3939 C   0  0  0  0  0  0  0  0  0  0  0  0
    2.6431    0.2439    0.5263 C   0  0  0  0  0  0  0  0  0  0  0  0
    3.9748    0.0417    0.2155 C   0  0  0  0  0  0  0  0  0  0  0  0
    4.4009   -1.1965   -0.2274 C   0  0  0  0  0  0  0  0  0  0  0  0
    3.4954   -2.2327   -0.3590 C   0  0  0  0  0  0  0  0  0  0  0  0
    2.1645   -2.0317   -0.0440 C   0  0  0  0  0  0  0  0  0  0  0  0
   -2.4271    1.0803    0.0383 O   0  0  0  0  0  0  0  0  0  0  0  0
   -4.5584   -0.2561   -0.6398 H   0  0  0  0  0  0  0  0  0  0  0  0
   -4.2152   -0.4959    1.0902 H   0  0  0  0  0  0  0  0  0  0  0  0
   -4.3619   -2.9515    0.7789 H   0  0  0  0  0  0  0  0  0  0  0  0
   -5.8698   -2.1522    0.2732 H   0  0  0  0  0  0  0  0  0  0  0  0
   -4.7051   -2.7117   -0.9511 H   0  0  0  0  0  0  0  0  0  0  0  0
    0.4410    1.3331   -1.7967 H   0  0  0  0  0  0  0  0  0  0  0  0
   -0.0514    3.9493   -1.3774 H   0  0  0  0  0  0  0  0  0  0  0  0
    0.3280    4.3257    0.3204 H   0  0  0  0  0  0  0  0  0  0  0  0
    1.5466    3.5376   -0.7102 H   0  0  0  0  0  0  0  0  0  0  0  0
    0.2056    0.1847    1.5136 H   0  0  0  0  0  0  0  0  0  0  0  0
   -0.1510   -1.5059    1.0856 H   0  0  0  0  0  0  0  0  0  0  0  0
    2.3103    1.2113    0.8723 H   0  0  0  0  0  0  0  0  0  0  0  0
    4.6823    0.8512    0.3182 H   0  0  0  0  0  0  0  0  0  0  0  0
    5.4412   -1.3543   -0.4710 H   0  0  0  0  0  0  0  0  0  0  0  0
    3.8282   -3.2000   -0.7053 H   0  0  0  0  0  0  0  0  0  0  0  0
    1.4570   -2.8412   -0.1468 H   0  0  0  0  0  0  0  0  0  0  0  0
  1  2  1  0  0  0  0
  1  3  1  0  0  0  0
  3  4  1  0  0  0  0
  4  5  1  0  0  0  0
  5  6  1  0  0  0  0
  5  7  1  0  0  0  0
  7  8  1  0  0  0  0
  8  9  1  0  0  0  0
  8 10  2  0  0  0  0
  5 11  1  0  0  0  0
 11 12  1  0  0  0  0
 12 13  2  0  0  0  0
 13 14  1  0  0  0  0
 14 15  2  0  0  0  0
 15 16  1  0  0  0  0
 16 17  2  0  0  0  0
 12 17  1  0  0  0  0
  4 18  2  0  0  0  0
  1 19  1  0  0  0  0
  1 20  1  0  0  0  0
  2 21  1  0  0  0  0
  2 22  1  0  0  0  0
  2 23  1  0  0  0  0
  7 24  1  0  0  0  0
  9 25  1  0  0  0  0
  9 26  1  0  0  0  0
  9 27  1  0  0  0  0
 11 28  1  0  0  0  0
 11 29  1  0  0  0  0
 13 30  1  0  0  0  0
 14 31  1  0  0  0  0
 15 32  1  0  0  0  0
 16 33  1  0  0  0  0
 17 34  1  0  0  0  0
M  END
$$$$
