C15H18N2O3
APtclcactv12211717083D 0   0.00000     0.00000
 
 38 39  0  0  1  0  0  0  0  0999 V2000
   -4.8788   -0.4030    0.1448 C   0  0  0  0  0  0  0  0  0  0  0  0
   -5.8080   -1.6184    0.1297 C   0  0  0  0  0  0  0  0  0  0  0  0
   -3.5284   -0.8220   -0.1855 O   0  0  0  0  0  0  0  0  0  0  0  0
   -2.5845    0.1319   -0.2154 C   0  0  0  0  0  0  0  0  0  0  0  0
   -1.1600   -0.2278   -0.5506 C   0  0  1  0  0  0  0  0  0  0  0  0
   -1.1508   -0.9658   -1.3528 H   0  0  0  0  0  0  0  0  0  0  0  0
   -0.4420    0.9734   -0.9840 N   0  0  0  0  0  0  0  0  0  0  0  0
   -0.3245    2.0258   -0.1502 C   0  0  0  0  0  0  0  0  0  0  0  0
    0.4141    3.2614   -0.5959 C   0  0  0  0  0  0  0  0  0  0  0  0
   -0.8131    1.9783    0.9588 O   0  0  0  0  0  0  0  0  0  0  0  0
   -0.4766   -0.8117    0.6875 C   0  0  0  0  0  0  0  0  0  0  0  0
    0.9068   -1.2844    0.3217 C   0  0  0  0  0  0  0  0  0  0  0  0
    1.2588   -2.5329   -0.0235 C   0  0  0  0  0  0  0  0  0  0  0  0
    2.6005   -2.5834   -0.2876 N   0  0  0  0  0  0  0  0  0  0  0  0
    3.1588   -1.3367   -0.1144 C   0  0  0  0  0  0  0  0  0  0  0  0
    4.4508   -0.8393   -0.2475 C   0  0  0  0  0  0  0  0  0  0  0  0
    4.7004    0.4926    0.0022 C   0  0  0  0  0  0  0  0  0  0  0  0
    3.6747    1.3452    0.3859 C   0  0  0  0  0  0  0  0  0  0  0  0
    2.3979    0.8775    0.5232 C   0  0  0  0  0  0  0  0  0  0  0  0
    2.1214   -0.4670    0.2692 C   0  0  0  0  0  0  0  0  0  0  0  0
   -2.8770    1.2790    0.0265 O   0  0  0  0  0  0  0  0  0  0  0  0
   -5.2226    0.3264   -0.5886 H   0  0  0  0  0  0  0  0  0  0  0  0
   -4.8868    0.0481    1.1371 H   0  0  0  0  0  0  0  0  0  0  0  0
   -5.4642   -2.3478    0.8632 H   0  0  0  0  0  0  0  0  0  0  0  0
   -6.8217   -1.3039    0.3777 H   0  0  0  0  0  0  0  0  0  0  0  0
   -5.8000   -2.0695   -0.8625 H   0  0  0  0  0  0  0  0  0  0  0  0
   -0.0512    1.0113   -1.8709 H   0  0  0  0  0  0  0  0  0  0  0  0
   -0.2838    3.9497   -1.0726 H   0  0  0  0  0  0  0  0  0  0  0  0
    0.8680    3.7452    0.2690 H   0  0  0  0  0  0  0  0  0  0  0  0
    1.1924    2.9830   -1.3065 H   0  0  0  0  0  0  0  0  0  0  0  0
   -0.4064   -0.0452    1.4592 H   0  0  0  0  0  0  0  0  0  0  0  0
   -1.0605   -1.6524    1.0623 H   0  0  0  0  0  0  0  0  0  0  0  0
    0.5831   -3.3733   -0.0835 H   0  0  0  0  0  0  0  0  0  0  0  0
    3.0859   -3.3789   -0.5567 H   0  0  0  0  0  0  0  0  0  0  0  0
    5.2558   -1.4948   -0.5452 H   0  0  0  0  0  0  0  0  0  0  0  0
    5.7044    0.8769   -0.1013 H   0  0  0  0  0  0  0  0  0  0  0  0
    3.8872    2.3865    0.5778 H   0  0  0  0  0  0  0  0  0  0  0  0
    1.6049    1.5467    0.8225 H   0  0  0  0  0  0  0  0  0  0  0  0
  1  2  1  0  0  0  0
  1  3  1  0  0  0  0
  3  4  1  0  0  0  0
  4  5  1  0  0  0  0
  5  6  1  0  0  0  0
  5  7  1  0  0  0  0
  7  8  1  0  0  0  0
  8  9  1  0  0  0  0
  8 10  2  0  0  0  0
  5 11  1  0  0  0  0
 11 12  1  0  0  0  0
 12 13  2  0  0  0  0
 13 14  1  0  0  0  0
 14 15  1  0  0  0  0
 15 16  2  0  0  0  0
 16 17  1  0  0  0  0
 17 18  2  0  0  0  0
 18 19  1  0  0  0  0
 19 20  2  0  0  0  0
 12 20  1  0  0  0  0
 15 20  1  0  0  0  0
  4 21  2  0  0  0  0
  1 22  1  0  0  0  0
  1 23  1  0  0  0  0
  2 24  1  0  0  0  0
  2 25  1  0  0  0  0
  2 26  1  0  0  0  0
  7 27  1  0  0  0  0
  9 28  1  0  0  0  0
  9 29  1  0  0  0  0
  9 30  1  0  0  0  0
 11 31  1  0  0  0  0
 11 32  1  0  0  0  0
 13 33  1  0  0  0  0
 14 34  1  0  0  0  0
 16 35  1  0  0  0  0
 17 36  1  0  0  0  0
 18 37  1  0  0  0  0
 19 38  1  0  0  0  0
M  END
$$$$
