C4H7NO3
APtclcactv12211716383D 0   0.00000     0.00000
 
 15 14  0  0  0  0  0  0  0  0999 V2000
   -1.8618    0.0753   -0.0014 C   0  0  0  0  0  0  0  0  0  0  0  0
   -2.9768   -0.9386   -0.0005 C   0  0  0  0  0  0  0  0  0  0  0  0
   -2.1198    1.2604    0.0021 O   0  0  0  0  0  0  0  0  0  0  0  0
   -0.5780   -0.3348   -0.0005 N   0  0  0  0  0  0  0  0  0  0  0  0
    0.5059    0.6508   -0.0013 C   0  0  0  0  0  0  0  0  0  0  0  0
    1.8334   -0.0624    0.0000 C   0  0  0  0  0  0  0  0  0  0  0  0
    1.8704   -1.2701    0.0015 O   0  0  0  0  0  0  0  0  0  0  0  0
    2.9748    0.6440   -0.0005 O   0  0  0  0  0  0  0  0  0  0  0  0
   -3.9369   -0.4227    0.0035 H   0  0  0  0  0  0  0  0  0  0  0  0
   -2.9024   -1.5611   -0.8922 H   0  0  0  0  0  0  0  0  0  0  0  0
   -2.8973   -1.5652    0.8878 H   0  0  0  0  0  0  0  0  0  0  0  0
   -0.3716   -1.2826    0.0008 H   0  0  0  0  0  0  0  0  0  0  0  0
    0.4293    1.2743   -0.8921 H   0  0  0  0  0  0  0  0  0  0  0  0
    0.4287    1.2765    0.8879 H   0  0  0  0  0  0  0  0  0  0  0  0
    3.8015    0.1424    0.0004 H   0  0  0  0  0  0  0  0  0  0  0  0
  1  2  1  0  0  0  0
  1  3  2  0  0  0  0
  1  4  1  0  0  0  0
  4  5  1  0  0  0  0
  5  6  1  0  0  0  0
  6  7  2  0  0  0  0
  6  8  1  0  0  0  0
  2  9  1  0  0  0  0
  2 10  1  0  0  0  0
  2 11  1  0  0  0  0
  4 12  1  0  0  0  0
  5 13  1  0  0  0  0
  5 14  1  0  0  0  0
  8 15  1  0  0  0  0
M  END
$$$$
