C5H11Br
APtclcactv12211716453D 0   0.00000     0.00000
 
 17 16  0  0  0  0  0  0  0  0999 V2000
   -3.3447   -0.6093    0.0000 C   0  0  0  0  0  0  0  0  0  0  0  0
   -2.2351    0.4442   -0.0000 C   0  0  0  0  0  0  0  0  0  0  0  0
   -0.8721   -0.2508    0.0000 C   0  0  0  0  0  0  0  0  0  0  0  0
    0.2375    0.8027    0.0000 C   0  0  0  0  0  0  0  0  0  0  0  0
   -4.7078    0.0856   -0.0000 C   0  0  0  0  0  0  0  0  0  0  0  0
    1.9890   -0.0903   -0.0000 Br  0  0  0  0  0  0  0  0  0  0  0  0
   -5.4982   -0.6649    0.0000 H   0  0  0  0  0  0  0  0  0  0  0  0
   -4.7981    0.7084    0.8900 H   0  0  0  0  0  0  0  0  0  0  0  0
   -4.7981    0.7084   -0.8900 H   0  0  0  0  0  0  0  0  0  0  0  0
   -3.2544   -1.2321   -0.8900 H   0  0  0  0  0  0  0  0  0  0  0  0
   -3.2544   -1.2321    0.8900 H   0  0  0  0  0  0  0  0  0  0  0  0
   -2.3255    1.0670   -0.8900 H   0  0  0  0  0  0  0  0  0  0  0  0
   -2.3255    1.0670    0.8900 H   0  0  0  0  0  0  0  0  0  0  0  0
   -0.7818   -0.8736    0.8900 H   0  0  0  0  0  0  0  0  0  0  0  0
   -0.7818   -0.8736   -0.8900 H   0  0  0  0  0  0  0  0  0  0  0  0
    0.1472    1.4255   -0.8900 H   0  0  0  0  0  0  0  0  0  0  0  0
    0.1472    1.4255    0.8900 H   0  0  0  0  0  0  0  0  0  0  0  0
  1  5  1  0  0  0  0
  1  2  1  0  0  0  0
  2  3  1  0  0  0  0
  3  4  1  0  0  0  0
  4  6  1  0  0  0  0
  5  7  1  0  0  0  0
  5  8  1  0  0  0  0
  5  9  1  0  0  0  0
  1 10  1  0  0  0  0
  1 11  1  0  0  0  0
  2 12  1  0  0  0  0
  2 13  1  0  0  0  0
  3 14  1  0  0  0  0
  3 15  1  0  0  0  0
  4 16  1  0  0  0  0
  4 17  1  0  0  0  0
M  END
$$$$
