C14H11NO2
APtclcactv12091702563D 0   0.00000     0.00000
 
 28 29  0  0  0  0  0  0  0  0999 V2000
   -1.1672    0.8690   -0.0014 C   0  0  0  0  0  0  0  0  0  0  0  0
   -2.4469    0.1301   -0.0002 C   0  0  0  0  0  0  0  0  0  0  0  0
   -3.6578    0.8251    0.0047 C   0  0  0  0  0  0  0  0  0  0  0  0
   -4.8488    0.1291    0.0053 C   0  0  0  0  0  0  0  0  0  0  0  0
   -4.8452   -1.2545    0.0010 C   0  0  0  0  0  0  0  0  0  0  0  0
   -3.6487   -1.9495   -0.0035 C   0  0  0  0  0  0  0  0  0  0  0  0
   -2.4505   -1.2660   -0.0099 C   0  0  0  0  0  0  0  0  0  0  0  0
   -1.1672    2.0841    0.0019 O   0  0  0  0  0  0  0  0  0  0  0  0
   -0.0000    0.1951   -0.0006 N   0  0  0  0  0  0  0  0  0  0  0  0
    1.1672    0.8690   -0.0017 C   0  0  0  0  0  0  0  0  0  0  0  0
    2.4469    0.1301   -0.0008 C   0  0  0  0  0  0  0  0  0  0  0  0
    3.6578    0.8251   -0.0020 C   0  0  0  0  0  0  0  0  0  0  0  0
    4.8488    0.1291   -0.0006 C   0  0  0  0  0  0  0  0  0  0  0  0
    4.8452   -1.2545    0.0018 C   0  0  0  0  0  0  0  0  0  0  0  0
    3.6487   -1.9495    0.0024 C   0  0  0  0  0  0  0  0  0  0  0  0
    2.4505   -1.2660    0.0070 C   0  0  0  0  0  0  0  0  0  0  0  0
    1.1672    2.0841   -0.0034 O   0  0  0  0  0  0  0  0  0  0  0  0
   -3.6620    1.9051    0.0085 H   0  0  0  0  0  0  0  0  0  0  0  0
   -5.7862    0.6654    0.0095 H   0  0  0  0  0  0  0  0  0  0  0  0
   -5.7805   -1.7945    0.0015 H   0  0  0  0  0  0  0  0  0  0  0  0
   -3.6530   -3.0295   -0.0061 H   0  0  0  0  0  0  0  0  0  0  0  0
   -1.5173   -1.8096   -0.0138 H   0  0  0  0  0  0  0  0  0  0  0  0
   -0.0000   -0.7749    0.0007 H   0  0  0  0  0  0  0  0  0  0  0  0
    3.6620    1.9051   -0.0042 H   0  0  0  0  0  0  0  0  0  0  0  0
    5.7863    0.6654   -0.0019 H   0  0  0  0  0  0  0  0  0  0  0  0
    5.7805   -1.7945    0.0028 H   0  0  0  0  0  0  0  0  0  0  0  0
    3.6530   -3.0295    0.0036 H   0  0  0  0  0  0  0  0  0  0  0  0
    1.5173   -1.8096    0.0078 H   0  0  0  0  0  0  0  0  0  0  0  0
  1  2  1  0  0  0  0
  2  3  2  0  0  0  0
  3  4  1  0  0  0  0
  4  5  2  0  0  0  0
  5  6  1  0  0  0  0
  6  7  2  0  0  0  0
  2  7  1  0  0  0  0
  1  8  2  0  0  0  0
  1  9  1  0  0  0  0
  9 10  1  0  0  0  0
 10 11  1  0  0  0  0
 11 12  2  0  0  0  0
 12 13  1  0  0  0  0
 13 14  2  0  0  0  0
 14 15  1  0  0  0  0
 15 16  2  0  0  0  0
 11 16  1  0  0  0  0
 10 17  2  0  0  0  0
  3 18  1  0  0  0  0
  4 19  1  0  0  0  0
  5 20  1  0  0  0  0
  6 21  1  0  0  0  0
  7 22  1  0  0  0  0
  9 23  1  0  0  0  0
 12 24  1  0  0  0  0
 13 25  1  0  0  0  0
 14 26  1  0  0  0  0
 15 27  1  0  0  0  0
 16 28  1  0  0  0  0
M  END
$$$$
