C6H12O2
APtclcactv12211716583D 0   0.00000     0.00000
 
 20 19  0  0  0  0  0  0  0  0999 V2000
   -2.1010    0.0244   -0.0013 C   0  0  0  0  0  0  0  0  0  0  0  0
   -3.3294   -0.8487    0.0001 C   0  0  0  0  0  0  0  0  0  0  0  0
   -2.2148    1.2273    0.0014 O   0  0  0  0  0  0  0  0  0  0  0  0
   -0.8805   -0.5343    0.0001 O   0  0  0  0  0  0  0  0  0  0  0  0
    0.2573    0.3677   -0.0013 C   0  0  0  0  0  0  0  0  0  0  0  0
    1.5531   -0.4459    0.0006 C   0  0  0  0  0  0  0  0  0  0  0  0
    2.7521    0.5045   -0.0010 C   0  0  0  0  0  0  0  0  0  0  0  0
    4.0478   -0.3091    0.0009 C   0  0  0  0  0  0  0  0  0  0  0  0
   -4.2209   -0.2215    0.0036 H   0  0  0  0  0  0  0  0  0  0  0  0
   -3.3301   -1.4762   -0.8911 H   0  0  0  0  0  0  0  0  0  0  0  0
   -3.3256   -1.4797    0.8888 H   0  0  0  0  0  0  0  0  0  0  0  0
    0.2231    0.9943   -0.8926 H   0  0  0  0  0  0  0  0  0  0  0  0
    0.2226    0.9978    0.8874 H   0  0  0  0  0  0  0  0  0  0  0  0
    1.5873   -1.0726    0.8918 H   0  0  0  0  0  0  0  0  0  0  0  0
    1.5878   -1.0760   -0.8882 H   0  0  0  0  0  0  0  0  0  0  0  0
    2.7178    1.1311   -0.8922 H   0  0  0  0  0  0  0  0  0  0  0  0
    2.7174    1.1346    0.8878 H   0  0  0  0  0  0  0  0  0  0  0  0
    4.0825   -0.9392   -0.8878 H   0  0  0  0  0  0  0  0  0  0  0  0
    4.9020    0.3680   -0.0002 H   0  0  0  0  0  0  0  0  0  0  0  0
    4.0820   -0.9357    0.8921 H   0  0  0  0  0  0  0  0  0  0  0  0
  1  2  1  0  0  0  0
  1  3  2  0  0  0  0
  1  4  1  0  0  0  0
  4  5  1  0  0  0  0
  5  6  1  0  0  0  0
  6  7  1  0  0  0  0
  7  8  1  0  0  0  0
  2  9  1  0  0  0  0
  2 10  1  0  0  0  0
  2 11  1  0  0  0  0
  5 12  1  0  0  0  0
  5 13  1  0  0  0  0
  6 14  1  0  0  0  0
  6 15  1  0  0  0  0
  7 16  1  0  0  0  0
  7 17  1  0  0  0  0
  8 18  1  0  0  0  0
  8 19  1  0  0  0  0
  8 20  1  0  0  0  0
M  END
$$$$
