C11H14O3
APtclcactv12211717343D 0   0.00000     0.00000
 
 28 28  0  0  0  0  0  0  0  0999 V2000
   -0.1177    0.5447    0.0061 C   0  0  0  0  0  0  0  0  0  0  0  0
   -1.4413   -0.1039    0.0047 C   0  0  0  0  0  0  0  0  0  0  0  0
   -2.6080    0.6740    0.0148 C   0  0  0  0  0  0  0  0  0  0  0  0
   -2.5242    2.0278    0.0260 O   0  0  0  0  0  0  0  0  0  0  0  0
   -3.8478    0.0529    0.0129 C   0  0  0  0  0  0  0  0  0  0  0  0
   -3.9315   -1.3254    0.0011 C   0  0  0  0  0  0  0  0  0  0  0  0
   -2.7816   -2.0976   -0.0085 C   0  0  0  0  0  0  0  0  0  0  0  0
   -1.5410   -1.4975   -0.0126 C   0  0  0  0  0  0  0  0  0  0  0  0
   -0.0351    1.7570    0.0160 O   0  0  0  0  0  0  0  0  0  0  0  0
    1.0009   -0.2067    0.0019 O   0  0  0  0  0  0  0  0  0  0  0  0
    2.2695    0.4996    0.0036 C   0  0  0  0  0  0  0  0  0  0  0  0
    3.4168   -0.5127   -0.0016 C   0  0  0  0  0  0  0  0  0  0  0  0
    4.7536    0.2315    0.0001 C   0  0  0  0  0  0  0  0  0  0  0  0
    5.9008   -0.7807   -0.0051 C   0  0  0  0  0  0  0  0  0  0  0  0
   -2.5026    2.4278   -0.8541 H   0  0  0  0  0  0  0  0  0  0  0  0
   -4.7490    0.6479    0.0210 H   0  0  0  0  0  0  0  0  0  0  0  0
   -4.8996   -1.8043   -0.0004 H   0  0  0  0  0  0  0  0  0  0  0  0
   -2.8576   -3.1749   -0.0170 H   0  0  0  0  0  0  0  0  0  0  0  0
   -0.6471   -2.1036   -0.0201 H   0  0  0  0  0  0  0  0  0  0  0  0
    2.3362    1.1289   -0.8839 H   0  0  0  0  0  0  0  0  0  0  0  0
    2.3379    1.1216    0.8961 H   0  0  0  0  0  0  0  0  0  0  0  0
    3.3501   -1.1420    0.8858 H   0  0  0  0  0  0  0  0  0  0  0  0
    3.3484   -1.1347   -0.8941 H   0  0  0  0  0  0  0  0  0  0  0  0
    4.8202    0.8609   -0.8873 H   0  0  0  0  0  0  0  0  0  0  0  0
    4.8219    0.8536    0.8926 H   0  0  0  0  0  0  0  0  0  0  0  0
    5.8342   -1.4100    0.8823 H   0  0  0  0  0  0  0  0  0  0  0  0
    5.8325   -1.4027   -0.8976 H   0  0  0  0  0  0  0  0  0  0  0  0
    6.8532   -0.2505   -0.0039 H   0  0  0  0  0  0  0  0  0  0  0  0
  1  2  1  0  0  0  0
  2  3  1  0  0  0  0
  3  4  1  0  0  0  0
  3  5  2  0  0  0  0
  5  6  1  0  0  0  0
  6  7  2  0  0  0  0
  7  8  1  0  0  0  0
  2  8  2  0  0  0  0
  1  9  2  0  0  0  0
  1 10  1  0  0  0  0
 10 11  1  0  0  0  0
 11 12  1  0  0  0  0
 12 13  1  0  0  0  0
 13 14  1  0  0  0  0
  4 15  1  0  0  0  0
  5 16  1  0  0  0  0
  6 17  1  0  0  0  0
  7 18  1  0  0  0  0
  8 19  1  0  0  0  0
 11 20  1  0  0  0  0
 11 21  1  0  0  0  0
 12 22  1  0  0  0  0
 12 23  1  0  0  0  0
 13 24  1  0  0  0  0
 13 25  1  0  0  0  0
 14 26  1  0  0  0  0
 14 27  1  0  0  0  0
 14 28  1  0  0  0  0
M  END
$$$$
