C4H9Br
APtclcactv12211716403D 0   0.00000     0.00000
 
 14 13  0  0  0  0  0  0  0  0999 V2000
   -0.2394   -0.8211   -0.0000 C   0  0  0  0  0  0  0  0  0  0  0  0
   -1.3682    0.2117   -0.0000 C   0  0  0  0  0  0  0  0  0  0  0  0
   -2.7182   -0.5082    0.0000 C   0  0  0  0  0  0  0  0  0  0  0  0
   -3.8470    0.5247   -0.0000 C   0  0  0  0  0  0  0  0  0  0  0  0
    1.4954    0.1039    0.0000 Br  0  0  0  0  0  0  0  0  0  0  0  0
   -0.3182   -1.4455    0.8900 H   0  0  0  0  0  0  0  0  0  0  0  0
   -0.3182   -1.4455   -0.8900 H   0  0  0  0  0  0  0  0  0  0  0  0
   -1.2893    0.8361    0.8900 H   0  0  0  0  0  0  0  0  0  0  0  0
   -1.2893    0.8361   -0.8900 H   0  0  0  0  0  0  0  0  0  0  0  0
   -2.7970   -1.1325   -0.8900 H   0  0  0  0  0  0  0  0  0  0  0  0
   -2.7970   -1.1325    0.8900 H   0  0  0  0  0  0  0  0  0  0  0  0
   -4.8088    0.0118    0.0000 H   0  0  0  0  0  0  0  0  0  0  0  0
   -3.7681    1.1491    0.8900 H   0  0  0  0  0  0  0  0  0  0  0  0
   -3.7681    1.1491   -0.8900 H   0  0  0  0  0  0  0  0  0  0  0  0
  1  2  1  0  0  0  0
  2  3  1  0  0  0  0
  3  4  1  0  0  0  0
  1  5  1  0  0  0  0
  1  6  1  0  0  0  0
  1  7  1  0  0  0  0
  2  8  1  0  0  0  0
  2  9  1  0  0  0  0
  3 10  1  0  0  0  0
  3 11  1  0  0  0  0
  4 12  1  0  0  0  0
  4 13  1  0  0  0  0
  4 14  1  0  0  0  0
M  END
$$$$
