C13H17NO
APtclcactv12071713273D 0   0.00000     0.00000
 
 32 32  0  0  0  0  0  0  0  0999 V2000
   -3.3123    0.4748    0.0001 C   0  0  0  0  0  0  0  0  0  0  0  0
   -4.3730   -0.6279   -0.0003 C   0  0  0  0  0  0  0  0  0  0  0  0
   -5.7661    0.0046    0.0001 C   0  0  0  0  0  0  0  0  0  0  0  0
   -6.8268   -1.0980   -0.0003 C   0  0  0  0  0  0  0  0  0  0  0  0
   -1.9783   -0.1308   -0.0003 N   0  0  0  0  0  0  0  0  0  0  0  0
   -0.8822    0.6534   -0.0000 C   0  0  0  0  0  0  0  0  0  0  0  0
    0.4511    0.0481   -0.0005 C   0  0  0  0  0  0  0  0  0  0  0  0
    1.5475    0.8325   -0.0002 C   0  0  0  0  0  0  0  0  0  0  0  0
    2.8879    0.2239   -0.0006 C   0  0  0  0  0  0  0  0  0  0  0  0
    4.0275    1.0342   -0.0003 C   0  0  0  0  0  0  0  0  0  0  0  0
    5.2797    0.4567   -0.0002 C   0  0  0  0  0  0  0  0  0  0  0  0
    5.4101   -0.9212   -0.0009 C   0  0  0  0  0  0  0  0  0  0  0  0
    4.2870   -1.7299   -0.0016 C   0  0  0  0  0  0  0  0  0  0  0  0
    3.0280   -1.1674    0.0046 C   0  0  0  0  0  0  0  0  0  0  0  0
   -1.0006    1.8646    0.0006 O   0  0  0  0  0  0  0  0  0  0  0  0
   -3.4308    1.0933   -0.8896 H   0  0  0  0  0  0  0  0  0  0  0  0
   -3.4306    1.0924    0.8904 H   0  0  0  0  0  0  0  0  0  0  0  0
   -4.2546   -1.2455   -0.8906 H   0  0  0  0  0  0  0  0  0  0  0  0
   -4.2545   -1.2464    0.8893 H   0  0  0  0  0  0  0  0  0  0  0  0
   -5.8845    0.6223    0.8904 H   0  0  0  0  0  0  0  0  0  0  0  0
   -5.8846    0.6231   -0.8896 H   0  0  0  0  0  0  0  0  0  0  0  0
   -6.7083   -1.7165    0.8893 H   0  0  0  0  0  0  0  0  0  0  0  0
   -7.8193   -0.6474   -0.0000 H   0  0  0  0  0  0  0  0  0  0  0  0
   -6.7085   -1.7157   -0.8906 H   0  0  0  0  0  0  0  0  0  0  0  0
   -1.8840   -1.0962   -0.0008 H   0  0  0  0  0  0  0  0  0  0  0  0
    0.5561   -1.0268   -0.0010 H   0  0  0  0  0  0  0  0  0  0  0  0
    1.4424    1.9073    0.0004 H   0  0  0  0  0  0  0  0  0  0  0  0
    3.9273    2.1095   -0.0005 H   0  0  0  0  0  0  0  0  0  0  0  0
    6.1608    1.0811   -0.0000 H   0  0  0  0  0  0  0  0  0  0  0  0
    6.3935   -1.3677   -0.0012 H   0  0  0  0  0  0  0  0  0  0  0  0
    4.3969   -2.8043   -0.0025 H   0  0  0  0  0  0  0  0  0  0  0  0
    2.1525   -1.7997    0.0044 H   0  0  0  0  0  0  0  0  0  0  0  0
  1  2  1  0  0  0  0
  2  3  1  0  0  0  0
  3  4  1  0  0  0  0
  1  5  1  0  0  0  0
  5  6  1  0  0  0  0
  6  7  1  0  0  0  0
  7  8  2  0  0  0  0
  8  9  1  0  0  0  0
  9 10  2  0  0  0  0
 10 11  1  0  0  0  0
 11 12  2  0  0  0  0
 12 13  1  0  0  0  0
 13 14  2  0  0  0  0
  9 14  1  0  0  0  0
  6 15  2  0  0  0  0
  1 16  1  0  0  0  0
  1 17  1  0  0  0  0
  2 18  1  0  0  0  0
  2 19  1  0  0  0  0
  3 20  1  0  0  0  0
  3 21  1  0  0  0  0
  4 22  1  0  0  0  0
  4 23  1  0  0  0  0
  4 24  1  0  0  0  0
  5 25  1  0  0  0  0
  7 26  1  0  0  0  0
  8 27  1  0  0  0  0
 10 28  1  0  0  0  0
 11 29  1  0  0  0  0
 12 30  1  0  0  0  0
 13 31  1  0  0  0  0
 14 32  1  0  0  0  0
M  END
$$$$
