C8H16O2
APtclcactv12151716363D 0   0.00000     0.00000
 
 26 25  0  0  0  0  0  0  0  0999 V2000
   -3.5423   -0.2716    0.0000 C   0  0  0  0  0  0  0  0  0  0  0  0
   -2.3318    0.6642   -0.0000 C   0  0  0  0  0  0  0  0  0  0  0  0
    1.3060   -0.3893   -0.0000 C   0  0  0  0  0  0  0  0  0  0  0  0
    3.8044   -0.4136   -0.0000 C   0  0  0  0  0  0  0  0  0  0  0  0
    2.5638    0.4818    0.0000 C   0  0  0  0  0  0  0  0  0  0  0  0
   -4.8280    0.5577   -0.0000 C   0  0  0  0  0  0  0  0  0  0  0  0
    5.0621    0.4575    0.0000 C   0  0  0  0  0  0  0  0  0  0  0  0
   -1.1249   -1.3594    0.0000 O   0  0  0  0  0  0  0  0  0  0  0  0
   -1.0654   -0.1526    0.0000 C   0  0  0  0  0  0  0  0  0  0  0  0
    0.1287    0.4605   -0.0000 O   0  0  0  0  0  0  0  0  0  0  0  0
   -5.6904   -0.1090    0.0000 H   0  0  0  0  0  0  0  0  0  0  0  0
   -4.8549    1.1864    0.8900 H   0  0  0  0  0  0  0  0  0  0  0  0
   -4.8549    1.1864   -0.8900 H   0  0  0  0  0  0  0  0  0  0  0  0
   -3.5155   -0.9003   -0.8900 H   0  0  0  0  0  0  0  0  0  0  0  0
   -3.5155   -0.9003    0.8900 H   0  0  0  0  0  0  0  0  0  0  0  0
   -2.3587    1.2929   -0.8900 H   0  0  0  0  0  0  0  0  0  0  0  0
   -2.3587    1.2929    0.8900 H   0  0  0  0  0  0  0  0  0  0  0  0
    1.2999   -1.0186   -0.8900 H   0  0  0  0  0  0  0  0  0  0  0  0
    1.2999   -1.0186    0.8900 H   0  0  0  0  0  0  0  0  0  0  0  0
    5.9460   -0.1804   -0.0000 H   0  0  0  0  0  0  0  0  0  0  0  0
    5.0683    1.0868   -0.8900 H   0  0  0  0  0  0  0  0  0  0  0  0
    5.0683    1.0868    0.8900 H   0  0  0  0  0  0  0  0  0  0  0  0
    3.7983   -1.0429    0.8900 H   0  0  0  0  0  0  0  0  0  0  0  0
    3.7983   -1.0429   -0.8900 H   0  0  0  0  0  0  0  0  0  0  0  0
    2.5699    1.1111   -0.8900 H   0  0  0  0  0  0  0  0  0  0  0  0
    2.5699    1.1111    0.8900 H   0  0  0  0  0  0  0  0  0  0  0  0
  1  6  1  0  0  0  0
  1  2  1  0  0  0  0
  2  9  1  0  0  0  0
  9 10  1  0  0  0  0
  8  9  2  0  0  0  0
  3 10  1  0  0  0  0
  3  5  1  0  0  0  0
  4  7  1  0  0  0  0
  4  5  1  0  0  0  0
  6 11  1  0  0  0  0
  6 12  1  0  0  0  0
  6 13  1  0  0  0  0
  1 14  1  0  0  0  0
  1 15  1  0  0  0  0
  2 16  1  0  0  0  0
  2 17  1  0  0  0  0
  3 18  1  0  0  0  0
  3 19  1  0  0  0  0
  7 20  1  0  0  0  0
  7 21  1  0  0  0  0
  7 22  1  0  0  0  0
  4 23  1  0  0  0  0
  4 24  1  0  0  0  0
  5 25  1  0  0  0  0
  5 26  1  0  0  0  0
M  END
$$$$
