C11H13NO
APtclcactv12211717333D 0   0.00000     0.00000
 
 26 26  0  0  0  0  0  0  0  0999 V2000
   -4.3511    0.0522    0.0000 C   0  0  0  0  0  0  0  0  0  0  0  0
   -5.3245   -1.1283   -0.0005 C   0  0  0  0  0  0  0  0  0  0  0  0
   -2.9748   -0.4497   -0.0004 N   0  0  0  0  0  0  0  0  0  0  0  0
   -1.9418    0.4160   -0.0001 C   0  0  0  0  0  0  0  0  0  0  0  0
   -0.5661   -0.0857   -0.0005 C   0  0  0  0  0  0  0  0  0  0  0  0
    0.4671    0.7802   -0.0002 C   0  0  0  0  0  0  0  0  0  0  0  0
    1.8501    0.2759   -0.0006 C   0  0  0  0  0  0  0  0  0  0  0  0
    2.9245    1.1709   -0.0002 C   0  0  0  0  0  0  0  0  0  0  0  0
    4.2171    0.6907   -0.0001 C   0  0  0  0  0  0  0  0  0  0  0  0
    4.4525   -0.6732   -0.0009 C   0  0  0  0  0  0  0  0  0  0  0  0
    3.3944   -1.5653   -0.0017 C   0  0  0  0  0  0  0  0  0  0  0  0
    2.0961   -1.1007    0.0045 C   0  0  0  0  0  0  0  0  0  0  0  0
   -2.1524    1.6146    0.0006 O   0  0  0  0  0  0  0  0  0  0  0  0
   -4.5165    0.6599   -0.8896 H   0  0  0  0  0  0  0  0  0  0  0  0
   -4.5163    0.6590    0.8903 H   0  0  0  0  0  0  0  0  0  0  0  0
   -5.1593   -1.7350   -0.8908 H   0  0  0  0  0  0  0  0  0  0  0  0
   -5.1591   -1.7359    0.8892 H   0  0  0  0  0  0  0  0  0  0  0  0
   -6.3485   -0.7548   -0.0002 H   0  0  0  0  0  0  0  0  0  0  0  0
   -2.8069   -1.4051   -0.0009 H   0  0  0  0  0  0  0  0  0  0  0  0
   -0.3793   -1.1494   -0.0011 H   0  0  0  0  0  0  0  0  0  0  0  0
    0.2802    1.8439    0.0004 H   0  0  0  0  0  0  0  0  0  0  0  0
    2.7424    2.2354   -0.0004 H   0  0  0  0  0  0  0  0  0  0  0  0
    5.0480    1.3807    0.0001 H   0  0  0  0  0  0  0  0  0  0  0  0
    5.4671   -1.0432   -0.0012 H   0  0  0  0  0  0  0  0  0  0  0  0
    3.5861   -2.6282   -0.0026 H   0  0  0  0  0  0  0  0  0  0  0  0
    1.2715   -1.7980    0.0043 H   0  0  0  0  0  0  0  0  0  0  0  0
  1  2  1  0  0  0  0
  1  3  1  0  0  0  0
  3  4  1  0  0  0  0
  4  5  1  0  0  0  0
  5  6  2  0  0  0  0
  6  7  1  0  0  0  0
  7  8  2  0  0  0  0
  8  9  1  0  0  0  0
  9 10  2  0  0  0  0
 10 11  1  0  0  0  0
 11 12  2  0  0  0  0
  7 12  1  0  0  0  0
  4 13  2  0  0  0  0
  1 14  1  0  0  0  0
  1 15  1  0  0  0  0
  2 16  1  0  0  0  0
  2 17  1  0  0  0  0
  2 18  1  0  0  0  0
  3 19  1  0  0  0  0
  5 20  1  0  0  0  0
  6 21  1  0  0  0  0
  8 22  1  0  0  0  0
  9 23  1  0  0  0  0
 10 24  1  0  0  0  0
 11 25  1  0  0  0  0
 12 26  1  0  0  0  0
M  END
$$$$
