C6H15N
APtclcactv12211717013D 0   0.00000     0.00000
 
 22 21  0  0  0  0  0  0  0  0999 V2000
   -1.7062    0.0224   -0.4840 C   0  0  0  0  0  0  0  0  0  0  0  0
   -2.9049   -0.6225    0.2148 C   0  0  0  0  0  0  0  0  0  0  0  0
   -0.5146   -0.1114    0.3646 N   0  0  0  0  0  0  0  0  0  0  0  0
    0.6588    0.4979   -0.2756 C   0  0  0  0  0  0  0  0  0  0  0  0
    0.6877    1.9962    0.0331 C   0  0  0  0  0  0  0  0  0  0  0  0
    1.9318   -0.1584    0.2625 C   0  0  0  0  0  0  0  0  0  0  0  0
    1.9620   -1.6303   -0.1540 C   0  0  0  0  0  0  0  0  0  0  0  0
   -1.5307   -0.4752   -1.4377 H   0  0  0  0  0  0  0  0  0  0  0  0
   -1.9119    1.0786   -0.6576 H   0  0  0  0  0  0  0  0  0  0  0  0
   -3.7891   -0.5232   -0.4149 H   0  0  0  0  0  0  0  0  0  0  0  0
   -2.6992   -1.6787    0.3884 H   0  0  0  0  0  0  0  0  0  0  0  0
   -3.0804   -0.1249    1.1686 H   0  0  0  0  0  0  0  0  0  0  0  0
   -0.6749    0.2857    1.2783 H   0  0  0  0  0  0  0  0  0  0  0  0
    0.6019    0.3502   -1.3541 H   0  0  0  0  0  0  0  0  0  0  0  0
    1.5583    2.4483   -0.4420 H   0  0  0  0  0  0  0  0  0  0  0  0
   -0.2192    2.4637   -0.3504 H   0  0  0  0  0  0  0  0  0  0  0  0
    0.7446    2.1439    1.1115 H   0  0  0  0  0  0  0  0  0  0  0  0
    2.8041    0.3526   -0.1449 H   0  0  0  0  0  0  0  0  0  0  0  0
    1.9448   -0.0883    1.3502 H   0  0  0  0  0  0  0  0  0  0  0  0
    2.8689   -2.0978    0.2294 H   0  0  0  0  0  0  0  0  0  0  0  0
    1.0896   -2.1412    0.2534 H   0  0  0  0  0  0  0  0  0  0  0  0
    1.9490   -1.7004   -1.2417 H   0  0  0  0  0  0  0  0  0  0  0  0
  1  2  1  0  0  0  0
  1  3  1  0  0  0  0
  3  4  1  0  0  0  0
  4  5  1  0  0  0  0
  4  6  1  0  0  0  0
  6  7  1  0  0  0  0
  1  8  1  0  0  0  0
  1  9  1  0  0  0  0
  2 10  1  0  0  0  0
  2 11  1  0  0  0  0
  2 12  1  0  0  0  0
  3 13  1  0  0  0  0
  4 14  1  0  0  0  0
  5 15  1  0  0  0  0
  5 16  1  0  0  0  0
  5 17  1  0  0  0  0
  6 18  1  0  0  0  0
  6 19  1  0  0  0  0
  7 20  1  0  0  0  0
  7 21  1  0  0  0  0
  7 22  1  0  0  0  0
M  END
$$$$
