C7H13NO3
APtclcactv12151716213D 0   0.00000     0.00000
 
 24 23  0  0  1  0  0  0  0  0999 V2000
    1.3277   -2.0178    0.3606 C   0  0  0  0  0  0  0  0  0  0  0  0
    1.7830   -1.9972   -0.7633 O   0  0  0  0  0  0  0  0  0  0  0  0
    0.5483   -1.0059    0.7906 N   0  0  0  0  0  0  0  0  0  0  0  0
    0.2510    0.1190   -0.0997 C   0  0  1  0  0  0  0  0  0  0  0  0
    0.1635   -0.2420   -1.1245 H   0  0  0  0  0  0  0  0  0  0  0  0
   -1.0660    0.7715    0.3253 C   0  0  0  0  0  0  0  0  0  0  0  0
   -2.2087   -0.2327    0.1620 C   0  0  0  0  0  0  0  0  0  0  0  0
   -3.4996    0.3681    0.7221 C   0  0  0  0  0  0  0  0  0  0  0  0
   -2.3975   -0.5536   -1.3220 C   0  0  0  0  0  0  0  0  0  0  0  0
    1.3633    1.1324   -0.0173 C   0  0  0  0  0  0  0  0  0  0  0  0
    2.3075    0.9353    0.7104 O   0  0  0  0  0  0  0  0  0  0  0  0
    1.3051    2.2540   -0.7523 O   0  0  0  0  0  0  0  0  0  0  0  0
    1.5432   -2.8492    1.0154 H   0  0  0  0  0  0  0  0  0  0  0  0
    0.1841   -1.0223    1.6895 H   0  0  0  0  0  0  0  0  0  0  0  0
   -0.9989    1.0791    1.3689 H   0  0  0  0  0  0  0  0  0  0  0  0
   -1.2572    1.6442   -0.2991 H   0  0  0  0  0  0  0  0  0  0  0  0
   -1.9687   -1.1475    0.7039 H   0  0  0  0  0  0  0  0  0  0  0  0
   -3.3817    0.5509    1.7902 H   0  0  0  0  0  0  0  0  0  0  0  0
   -3.7130    1.3085    0.2140 H   0  0  0  0  0  0  0  0  0  0  0  0
   -4.3236   -0.3270    0.5613 H   0  0  0  0  0  0  0  0  0  0  0  0
   -1.4779   -0.9816   -1.7210 H   0  0  0  0  0  0  0  0  0  0  0  0
   -3.2117   -1.2689   -1.4383 H   0  0  0  0  0  0  0  0  0  0  0  0
   -2.6375    0.3613   -1.8638 H   0  0  0  0  0  0  0  0  0  0  0  0
    2.0420    2.8743   -0.6659 H   0  0  0  0  0  0  0  0  0  0  0  0
  1  2  2  0  0  0  0
  1  3  1  0  0  0  0
  3  4  1  0  0  0  0
  4  5  1  0  0  0  0
  4  6  1  0  0  0  0
  6  7  1  0  0  0  0
  7  8  1  0  0  0  0
  7  9  1  0  0  0  0
  4 10  1  0  0  0  0
 10 11  2  0  0  0  0
 10 12  1  0  0  0  0
  1 13  1  0  0  0  0
  3 14  1  0  0  0  0
  6 15  1  0  0  0  0
  6 16  1  0  0  0  0
  7 17  1  0  0  0  0
  8 18  1  0  0  0  0
  8 19  1  0  0  0  0
  8 20  1  0  0  0  0
  9 21  1  0  0  0  0
  9 22  1  0  0  0  0
  9 23  1  0  0  0  0
 12 24  1  0  0  0  0
M  END
$$$$
