C8H17NO2
APtclcactv12151716393D 0   0.00000     0.00000
 
 28 27  0  0  0  0  0  0  0  0999 V2000
   -3.8411   -0.0648   -0.0012 C   0  0  0  0  0  0  0  0  0  0  0  0
   -4.9714    0.6693   -0.0001 N   0  0  0  0  0  0  0  0  0  0  0  0
   -2.6414    0.5464    0.0000 O   0  0  0  0  0  0  0  0  0  0  0  0
   -1.4668   -0.3071   -0.0012 C   0  0  0  0  0  0  0  0  0  0  0  0
   -0.2063    0.5601    0.0004 C   0  0  0  0  0  0  0  0  0  0  0  0
    1.0315   -0.3392   -0.0009 C   0  0  0  0  0  0  0  0  0  0  0  0
    2.2920    0.5280    0.0007 C   0  0  0  0  0  0  0  0  0  0  0  0
    3.5298   -0.3714   -0.0006 C   0  0  0  0  0  0  0  0  0  0  0  0
    4.7903    0.4958    0.0011 C   0  0  0  0  0  0  0  0  0  0  0  0
    6.0280   -0.4035   -0.0003 C   0  0  0  0  0  0  0  0  0  0  0  0
   -3.9047   -1.2782    0.0018 O   0  0  0  0  0  0  0  0  0  0  0  0
   -4.9206    1.6380    0.0015 H   0  0  0  0  0  0  0  0  0  0  0  0
   -5.8357    0.2290   -0.0010 H   0  0  0  0  0  0  0  0  0  0  0  0
   -1.4750   -0.9379    0.8877 H   0  0  0  0  0  0  0  0  0  0  0  0
   -1.4747   -0.9348   -0.8923 H   0  0  0  0  0  0  0  0  0  0  0  0
   -0.1980    1.1909   -0.8885 H   0  0  0  0  0  0  0  0  0  0  0  0
   -0.1983    1.1879    0.8915 H   0  0  0  0  0  0  0  0  0  0  0  0
    1.0233   -0.9700    0.8880 H   0  0  0  0  0  0  0  0  0  0  0  0
    1.0235   -0.9670   -0.8920 H   0  0  0  0  0  0  0  0  0  0  0  0
    2.3002    1.1587   -0.8882 H   0  0  0  0  0  0  0  0  0  0  0  0
    2.3000    1.1557    0.8918 H   0  0  0  0  0  0  0  0  0  0  0  0
    3.5215   -1.0022    0.8883 H   0  0  0  0  0  0  0  0  0  0  0  0
    3.5218   -0.9991   -0.8917 H   0  0  0  0  0  0  0  0  0  0  0  0
    4.7985    1.1266   -0.8879 H   0  0  0  0  0  0  0  0  0  0  0  0
    4.7982    1.1236    0.8921 H   0  0  0  0  0  0  0  0  0  0  0  0
    6.9261    0.2143    0.0009 H   0  0  0  0  0  0  0  0  0  0  0  0
    6.0198   -1.0343    0.8886 H   0  0  0  0  0  0  0  0  0  0  0  0
    6.0201   -1.0313   -0.8913 H   0  0  0  0  0  0  0  0  0  0  0  0
  1  2  1  0  0  0  0
  1  3  1  0  0  0  0
  3  4  1  0  0  0  0
  4  5  1  0  0  0  0
  5  6  1  0  0  0  0
  6  7  1  0  0  0  0
  7  8  1  0  0  0  0
  8  9  1  0  0  0  0
  9 10  1  0  0  0  0
  1 11  2  0  0  0  0
  2 12  1  0  0  0  0
  2 13  1  0  0  0  0
  4 14  1  0  0  0  0
  4 15  1  0  0  0  0
  5 16  1  0  0  0  0
  5 17  1  0  0  0  0
  6 18  1  0  0  0  0
  6 19  1  0  0  0  0
  7 20  1  0  0  0  0
  7 21  1  0  0  0  0
  8 22  1  0  0  0  0
  8 23  1  0  0  0  0
  9 24  1  0  0  0  0
  9 25  1  0  0  0  0
 10 26  1  0  0  0  0
 10 27  1  0  0  0  0
 10 28  1  0  0  0  0
M  END
$$$$
