C9H11NO
APtclcactv12151716463D 0   0.00000     0.00000
 
 22 22  0  0  0  0  0  0  0  0999 V2000
   -1.5074    1.6851    0.8467 C   0  0  0  0  0  0  0  0  0  0  0  0
   -1.0153    0.4521    0.2271 N   0  0  0  0  0  0  0  0  0  0  0  0
    0.3611    0.2254    0.1171 C   0  0  0  0  0  0  0  0  0  0  0  0
    1.1328    1.0212   -0.7194 C   0  0  0  0  0  0  0  0  0  0  0  0
    2.4910    0.7949   -0.8257 C   0  0  0  0  0  0  0  0  0  0  0  0
    3.0827   -0.2232   -0.1007 C   0  0  0  0  0  0  0  0  0  0  0  0
    2.3170   -1.0174    0.7331 C   0  0  0  0  0  0  0  0  0  0  0  0
    0.9593   -0.7923    0.8486 C   0  0  0  0  0  0  0  0  0  0  0  0
   -1.8883   -0.4638   -0.2371 C   0  0  0  0  0  0  0  0  0  0  0  0
   -3.3661   -0.1687   -0.2276 C   0  0  0  0  0  0  0  0  0  0  0  0
   -1.4846   -1.5254   -0.6624 O   0  0  0  0  0  0  0  0  0  0  0  0
   -1.6266    2.4532    0.0826 H   0  0  0  0  0  0  0  0  0  0  0  0
   -2.4691    1.4937    1.3227 H   0  0  0  0  0  0  0  0  0  0  0  0
   -0.7926    2.0256    1.5958 H   0  0  0  0  0  0  0  0  0  0  0  0
    0.6712    1.8161   -1.2864 H   0  0  0  0  0  0  0  0  0  0  0  0
    3.0917    1.4134   -1.4761 H   0  0  0  0  0  0  0  0  0  0  0  0
    4.1449   -0.3987   -0.1862 H   0  0  0  0  0  0  0  0  0  0  0  0
    2.7821   -1.8118    1.2980 H   0  0  0  0  0  0  0  0  0  0  0  0
    0.3619   -1.4127    1.5002 H   0  0  0  0  0  0  0  0  0  0  0  0
   -3.5641    0.7149   -0.8342 H   0  0  0  0  0  0  0  0  0  0  0  0
   -3.9092   -1.0202   -0.6377 H   0  0  0  0  0  0  0  0  0  0  0  0
   -3.6939    0.0124    0.7961 H   0  0  0  0  0  0  0  0  0  0  0  0
  1  2  1  0  0  0  0
  2  3  1  0  0  0  0
  3  4  2  0  0  0  0
  4  5  1  0  0  0  0
  5  6  2  0  0  0  0
  6  7  1  0  0  0  0
  7  8  2  0  0  0  0
  3  8  1  0  0  0  0
  2  9  1  0  0  0  0
  9 10  1  0  0  0  0
  9 11  2  0  0  0  0
  1 12  1  0  0  0  0
  1 13  1  0  0  0  0
  1 14  1  0  0  0  0
  4 15  1  0  0  0  0
  5 16  1  0  0  0  0
  6 17  1  0  0  0  0
  7 18  1  0  0  0  0
  8 19  1  0  0  0  0
 10 20  1  0  0  0  0
 10 21  1  0  0  0  0
 10 22  1  0  0  0  0
M  END
$$$$
