C4H10N2O
APtclcactv12211716403D 0   0.00000     0.00000
 
 17 16  0  0  0  0  0  0  0  0999 V2000
   -0.3171   -1.2572   -0.2897 N   0  0  0  0  0  0  0  0  0  0  0  0
   -1.4010   -1.5868    0.1577 O   0  0  0  0  0  0  0  0  0  0  0  0
    0.1272   -0.0628   -0.0893 N   0  0  0  0  0  0  0  0  0  0  0  0
    1.4309    0.3336   -0.6273 C   0  0  0  0  0  0  0  0  0  0  0  0
    2.5211    0.0306    0.4025 C   0  0  0  0  0  0  0  0  0  0  0  0
   -0.6719    0.8971    0.6763 C   0  0  0  0  0  0  0  0  0  0  0  0
   -1.5864    1.6723   -0.2742 C   0  0  0  0  0  0  0  0  0  0  0  0
    1.6308   -0.2235   -1.5426 H   0  0  0  0  0  0  0  0  0  0  0  0
    1.4242    1.4014   -0.8460 H   0  0  0  0  0  0  0  0  0  0  0  0
    3.4911    0.3256    0.0022 H   0  0  0  0  0  0  0  0  0  0  0  0
    2.3212    0.5877    1.3178 H   0  0  0  0  0  0  0  0  0  0  0  0
    2.5278   -1.0372    0.6211 H   0  0  0  0  0  0  0  0  0  0  0  0
   -1.2776    0.3634    1.4087 H   0  0  0  0  0  0  0  0  0  0  0  0
   -0.0091    1.5929    1.1909 H   0  0  0  0  0  0  0  0  0  0  0  0
   -0.9807    2.2061   -1.0066 H   0  0  0  0  0  0  0  0  0  0  0  0
   -2.2492    0.9765   -0.7888 H   0  0  0  0  0  0  0  0  0  0  0  0
   -2.1810    2.3865    0.2954 H   0  0  0  0  0  0  0  0  0  0  0  0
  1  2  2  0  0  0  0
  1  3  1  0  0  0  0
  3  4  1  0  0  0  0
  4  5  1  0  0  0  0
  3  6  1  0  0  0  0
  6  7  1  0  0  0  0
  4  8  1  0  0  0  0
  4  9  1  0  0  0  0
  5 10  1  0  0  0  0
  5 11  1  0  0  0  0
  5 12  1  0  0  0  0
  6 13  1  0  0  0  0
  6 14  1  0  0  0  0
  7 15  1  0  0  0  0
  7 16  1  0  0  0  0
  7 17  1  0  0  0  0
M  END
$$$$
