C5H10N2O
APtclcactv12211716443D 0   0.00000     0.00000
 
 18 18  0  0  0  0  0  0  0  0999 V2000
   -1.7685   -0.5628   -0.1550 N   0  0  0  0  0  0  0  0  0  0  0  0
   -2.5793    0.3382   -0.2758 O   0  0  0  0  0  0  0  0  0  0  0  0
   -0.5668   -0.3012    0.2341 N   0  0  0  0  0  0  0  0  0  0  0  0
    0.4223   -1.3772    0.3845 C   0  0  0  0  0  0  0  0  0  0  0  0
    1.6706   -1.0165   -0.4269 C   0  0  0  0  0  0  0  0  0  0  0  0
    2.1728    0.3636    0.0037 C   0  0  0  0  0  0  0  0  0  0  0  0
    1.0939    1.4117   -0.2782 C   0  0  0  0  0  0  0  0  0  0  0  0
   -0.1594    1.0792    0.5295 C   0  0  0  0  0  0  0  0  0  0  0  0
    0.6884   -1.4845    1.4361 H   0  0  0  0  0  0  0  0  0  0  0  0
    0.0034   -2.3129    0.0141 H   0  0  0  0  0  0  0  0  0  0  0  0
    2.4482   -1.7589   -0.2475 H   0  0  0  0  0  0  0  0  0  0  0  0
    1.4220   -0.9984   -1.4880 H   0  0  0  0  0  0  0  0  0  0  0  0
    2.3977    0.3517    1.0701 H   0  0  0  0  0  0  0  0  0  0  0  0
    3.0752    0.6121   -0.5548 H   0  0  0  0  0  0  0  0  0  0  0  0
    1.4611    2.3976    0.0070 H   0  0  0  0  0  0  0  0  0  0  0  0
    0.8508    1.4069   -1.3408 H   0  0  0  0  0  0  0  0  0  0  0  0
   -0.9620    1.7646    0.2573 H   0  0  0  0  0  0  0  0  0  0  0  0
    0.0569    1.1709    1.5939 H   0  0  0  0  0  0  0  0  0  0  0  0
  1  2  2  0  0  0  0
  1  3  1  0  0  0  0
  3  4  1  0  0  0  0
  4  5  1  0  0  0  0
  5  6  1  0  0  0  0
  6  7  1  0  0  0  0
  7  8  1  0  0  0  0
  3  8  1  0  0  0  0
  4  9  1  0  0  0  0
  4 10  1  0  0  0  0
  5 11  1  0  0  0  0
  5 12  1  0  0  0  0
  6 13  1  0  0  0  0
  6 14  1  0  0  0  0
  7 15  1  0  0  0  0
  7 16  1  0  0  0  0
  8 17  1  0  0  0  0
  8 18  1  0  0  0  0
M  END
$$$$
