C4H8N2O3
APtclcactv12211716393D 0   0.00000     0.00000
 
 17 16  0  0  0  0  0  0  0  0999 V2000
   -1.4430   -1.0901    0.0000 N   0  0  0  0  0  0  0  0  0  0  0  0
   -2.6036   -1.4594   -0.0000 O   0  0  0  0  0  0  0  0  0  0  0  0
   -1.1671    0.1701    0.0000 N   0  0  0  0  0  0  0  0  0  0  0  0
    0.1172    0.5788   -0.0000 C   0  0  0  0  0  0  0  0  0  0  0  0
    0.3768    1.7647   -0.0000 O   0  0  0  0  0  0  0  0  0  0  0  0
    1.1116   -0.3276    0.0000 O   0  0  0  0  0  0  0  0  0  0  0  0
    2.4703    0.1845    0.0000 C   0  0  0  0  0  0  0  0  0  0  0  0
    3.4563   -0.9854   -0.0000 C   0  0  0  0  0  0  0  0  0  0  0  0
   -2.2498    1.1570    0.0000 C   0  0  0  0  0  0  0  0  0  0  0  0
    2.6291    0.7935   -0.8900 H   0  0  0  0  0  0  0  0  0  0  0  0
    2.6291    0.7935    0.8900 H   0  0  0  0  0  0  0  0  0  0  0  0
    3.2975   -1.5944    0.8900 H   0  0  0  0  0  0  0  0  0  0  0  0
    3.2975   -1.5944   -0.8900 H   0  0  0  0  0  0  0  0  0  0  0  0
    4.4762   -0.6010    0.0000 H   0  0  0  0  0  0  0  0  0  0  0  0
   -2.5184    1.4017    1.0277 H   0  0  0  0  0  0  0  0  0  0  0  0
   -1.9188    2.0595   -0.5138 H   0  0  0  0  0  0  0  0  0  0  0  0
   -3.1179    0.7440   -0.5138 H   0  0  0  0  0  0  0  0  0  0  0  0
  1  2  2  0  0  0  0
  1  3  1  0  0  0  0
  3  4  1  0  0  0  0
  4  5  2  0  0  0  0
  4  6  1  0  0  0  0
  6  7  1  0  0  0  0
  7  8  1  0  0  0  0
  3  9  1  0  0  0  0
  7 10  1  0  0  0  0
  7 11  1  0  0  0  0
  8 12  1  0  0  0  0
  8 13  1  0  0  0  0
  8 14  1  0  0  0  0
  9 15  1  0  0  0  0
  9 16  1  0  0  0  0
  9 17  1  0  0  0  0
M  END
$$$$
