C17H25NO
APtclcactv12211717143D 0   0.00000     0.00000
 
 44 44  0  0  0  0  0  0  0  0999 V2000
   -1.0719   -0.8373   -0.0001 C   0  0  0  0  0  0  0  0  0  0  0  0
   -2.2170    0.1774    0.0003 C   0  0  0  0  0  0  0  0  0  0  0  0
   -3.5553   -0.5640   -0.0001 C   0  0  0  0  0  0  0  0  0  0  0  0
   -4.7005    0.4506    0.0003 C   0  0  0  0  0  0  0  0  0  0  0  0
   -6.0388   -0.2908   -0.0002 C   0  0  0  0  0  0  0  0  0  0  0  0
   -7.1840    0.7239    0.0002 C   0  0  0  0  0  0  0  0  0  0  0  0
   -8.5223   -0.0176   -0.0002 C   0  0  0  0  0  0  0  0  0  0  0  0
   -9.6675    0.9971    0.0002 C   0  0  0  0  0  0  0  0  0  0  0  0
    0.2096   -0.1273    0.0003 N   0  0  0  0  0  0  0  0  0  0  0  0
    1.3647   -0.8217    0.0001 C   0  0  0  0  0  0  0  0  0  0  0  0
    2.6456   -0.1122    0.0005 C   0  0  0  0  0  0  0  0  0  0  0  0
    3.8009   -0.8067    0.0002 C   0  0  0  0  0  0  0  0  0  0  0  0
    5.0886   -0.0934    0.0006 C   0  0  0  0  0  0  0  0  0  0  0  0
    6.2892   -0.8103    0.0004 C   0  0  0  0  0  0  0  0  0  0  0  0
    7.4914   -0.1349    0.0003 C   0  0  0  0  0  0  0  0  0  0  0  0
    7.5117    1.2490    0.0009 C   0  0  0  0  0  0  0  0  0  0  0  0
    6.3277    1.9657    0.0016 C   0  0  0  0  0  0  0  0  0  0  0  0
    5.1175    1.3047   -0.0046 C   0  0  0  0  0  0  0  0  0  0  0  0
    1.3432   -2.0385   -0.0005 O   0  0  0  0  0  0  0  0  0  0  0  0
   -1.1407   -1.4632    0.8896 H   0  0  0  0  0  0  0  0  0  0  0  0
   -1.1406   -1.4624   -0.8904 H   0  0  0  0  0  0  0  0  0  0  0  0
   -2.1482    0.8025    0.8906 H   0  0  0  0  0  0  0  0  0  0  0  0
   -2.1481    0.8034   -0.8894 H   0  0  0  0  0  0  0  0  0  0  0  0
   -3.6241   -1.1892   -0.8904 H   0  0  0  0  0  0  0  0  0  0  0  0
   -3.6242   -1.1900    0.8896 H   0  0  0  0  0  0  0  0  0  0  0  0
   -4.6317    1.0758    0.8905 H   0  0  0  0  0  0  0  0  0  0  0  0
   -4.6316    1.0766   -0.8894 H   0  0  0  0  0  0  0  0  0  0  0  0
   -6.1076   -0.9159   -0.8904 H   0  0  0  0  0  0  0  0  0  0  0  0
   -6.1077   -0.9167    0.8895 H   0  0  0  0  0  0  0  0  0  0  0  0
   -7.1152    1.3490    0.8905 H   0  0  0  0  0  0  0  0  0  0  0  0
   -7.1151    1.3498   -0.8895 H   0  0  0  0  0  0  0  0  0  0  0  0
   -8.5911   -0.6427   -0.8905 H   0  0  0  0  0  0  0  0  0  0  0  0
   -8.5912   -0.6435    0.8895 H   0  0  0  0  0  0  0  0  0  0  0  0
   -9.5987    1.6222    0.8905 H   0  0  0  0  0  0  0  0  0  0  0  0
   -9.5986    1.6230   -0.8895 H   0  0  0  0  0  0  0  0  0  0  0  0
  -10.6210    0.4689   -0.0001 H   0  0  0  0  0  0  0  0  0  0  0  0
    0.2268    0.8425    0.0007 H   0  0  0  0  0  0  0  0  0  0  0  0
    2.6647    0.9677    0.0009 H   0  0  0  0  0  0  0  0  0  0  0  0
    3.7818   -1.8866   -0.0003 H   0  0  0  0  0  0  0  0  0  0  0  0
    6.2749   -1.8902    0.0006 H   0  0  0  0  0  0  0  0  0  0  0  0
    8.4195   -0.6872    0.0001 H   0  0  0  0  0  0  0  0  0  0  0  0
    8.4564    1.7724    0.0011 H   0  0  0  0  0  0  0  0  0  0  0  0
    6.3517    3.0454    0.0024 H   0  0  0  0  0  0  0  0  0  0  0  0
    4.1944    1.8653   -0.0044 H   0  0  0  0  0  0  0  0  0  0  0  0
  1  2  1  0  0  0  0
  2  3  1  0  0  0  0
  3  4  1  0  0  0  0
  4  5  1  0  0  0  0
  5  6  1  0  0  0  0
  6  7  1  0  0  0  0
  7  8  1  0  0  0  0
  1  9  1  0  0  0  0
  9 10  1  0  0  0  0
 10 11  1  0  0  0  0
 11 12  2  0  0  0  0
 12 13  1  0  0  0  0
 13 14  2  0  0  0  0
 14 15  1  0  0  0  0
 15 16  2  0  0  0  0
 16 17  1  0  0  0  0
 17 18  2  0  0  0  0
 13 18  1  0  0  0  0
 10 19  2  0  0  0  0
  1 20  1  0  0  0  0
  1 21  1  0  0  0  0
  2 22  1  0  0  0  0
  2 23  1  0  0  0  0
  3 24  1  0  0  0  0
  3 25  1  0  0  0  0
  4 26  1  0  0  0  0
  4 27  1  0  0  0  0
  5 28  1  0  0  0  0
  5 29  1  0  0  0  0
  6 30  1  0  0  0  0
  6 31  1  0  0  0  0
  7 32  1  0  0  0  0
  7 33  1  0  0  0  0
  8 34  1  0  0  0  0
  8 35  1  0  0  0  0
  8 36  1  0  0  0  0
  9 37  1  0  0  0  0
 11 38  1  0  0  0  0
 12 39  1  0  0  0  0
 14 40  1  0  0  0  0
 15 41  1  0  0  0  0
 16 42  1  0  0  0  0
 17 43  1  0  0  0  0
 18 44  1  0  0  0  0
M  END
$$$$
