C6H13NO2
APtclcactv12211716593D 0   0.00000     0.00000
 
 22 21  0  0  0  0  0  0  0  0999 V2000
   -1.9007   -0.2703    0.0000 C   0  0  0  0  0  0  0  0  0  0  0  0
   -3.0678    0.7191   -0.0000 C   0  0  0  0  0  0  0  0  0  0  0  0
   -4.3896   -0.0514    0.0000 C   0  0  0  0  0  0  0  0  0  0  0  0
   -0.6350    0.4674    0.0000 N   0  0  0  0  0  0  0  0  0  0  0  0
    0.5349   -0.2016    0.0000 C   0  0  0  0  0  0  0  0  0  0  0  0
    0.5400   -1.4167    0.0000 O   0  0  0  0  0  0  0  0  0  0  0  0
    1.6981    0.4764    0.0000 O   0  0  0  0  0  0  0  0  0  0  0  0
    2.9191   -0.3094   -0.0000 C   0  0  0  0  0  0  0  0  0  0  0  0
    4.1286    0.6277    0.0000 C   0  0  0  0  0  0  0  0  0  0  0  0
   -1.9559   -0.8972    0.8900 H   0  0  0  0  0  0  0  0  0  0  0  0
   -1.9559   -0.8972   -0.8900 H   0  0  0  0  0  0  0  0  0  0  0  0
   -3.0126    1.3460    0.8900 H   0  0  0  0  0  0  0  0  0  0  0  0
   -3.0126    1.3460   -0.8900 H   0  0  0  0  0  0  0  0  0  0  0  0
   -5.2210    0.6534   -0.0000 H   0  0  0  0  0  0  0  0  0  0  0  0
   -4.4447   -0.6783   -0.8900 H   0  0  0  0  0  0  0  0  0  0  0  0
   -4.4447   -0.6783    0.8900 H   0  0  0  0  0  0  0  0  0  0  0  0
   -0.6391    1.4374    0.0000 H   0  0  0  0  0  0  0  0  0  0  0  0
    2.9466   -0.9381    0.8900 H   0  0  0  0  0  0  0  0  0  0  0  0
    2.9466   -0.9381   -0.8900 H   0  0  0  0  0  0  0  0  0  0  0  0
    4.1012    1.2564   -0.8900 H   0  0  0  0  0  0  0  0  0  0  0  0
    4.1012    1.2564    0.8900 H   0  0  0  0  0  0  0  0  0  0  0  0
    5.0452    0.0378   -0.0000 H   0  0  0  0  0  0  0  0  0  0  0  0
  1  2  1  0  0  0  0
  2  3  1  0  0  0  0
  1  4  1  0  0  0  0
  4  5  1  0  0  0  0
  5  6  2  0  0  0  0
  5  7  1  0  0  0  0
  7  8  1  0  0  0  0
  8  9  1  0  0  0  0
  1 10  1  0  0  0  0
  1 11  1  0  0  0  0
  2 12  1  0  0  0  0
  2 13  1  0  0  0  0
  3 14  1  0  0  0  0
  3 15  1  0  0  0  0
  3 16  1  0  0  0  0
  4 17  1  0  0  0  0
  8 18  1  0  0  0  0
  8 19  1  0  0  0  0
  9 20  1  0  0  0  0
  9 21  1  0  0  0  0
  9 22  1  0  0  0  0
M  END
$$$$
