C13H15N3O4S
APtclcactv12071713263D 0   0.00000     0.00000
 
 36 37  0  0  0  0  0  0  0  0999 V2000
    4.6026    3.0873   -0.1180 C   0  0  0  0  0  0  0  0  0  0  0  0
    3.6805    1.9100    0.0682 C   0  0  0  0  0  0  0  0  0  0  0  0
    2.8487    1.7195    1.0539 N   0  0  0  0  0  0  0  0  0  0  0  0
    2.2391    0.6823    0.9341 O   0  0  0  0  0  0  0  0  0  0  0  0
    2.5975    0.0278   -0.1819 C   0  0  0  0  0  0  0  0  0  0  0  0
    3.5439    0.8029   -0.7917 C   0  0  0  0  0  0  0  0  0  0  0  0
    4.2779    0.5311   -2.0795 C   0  0  0  0  0  0  0  0  0  0  0  0
    2.1039   -1.1840   -0.6281 N   0  0  0  0  0  0  0  0  0  0  0  0
    0.9448   -1.9789    0.2477 S   0  0  0  0  0  0  0  0  0  0  0  0
    1.4008   -1.9972    1.5934 O   0  0  0  0  0  0  0  0  0  0  0  0
   -0.5038   -0.9760    0.2269 C   0  0  0  0  0  0  0  0  0  0  0  0
   -1.4415   -1.1391   -0.7762 C   0  0  0  0  0  0  0  0  0  0  0  0
   -2.5780   -0.3546   -0.7954 C   0  0  0  0  0  0  0  0  0  0  0  0
   -2.7787    0.5986    0.1944 C   0  0  0  0  0  0  0  0  0  0  0  0
   -1.8353    0.7596    1.2007 C   0  0  0  0  0  0  0  0  0  0  0  0
   -0.7032   -0.0314    1.2169 C   0  0  0  0  0  0  0  0  0  0  0  0
   -3.9289    1.3953    0.1777 N   0  0  0  0  0  0  0  0  0  0  0  0
   -5.0907    0.8919   -0.2840 C   0  0  0  0  0  0  0  0  0  0  0  0
   -6.2993    1.7828   -0.4137 C   0  0  0  0  0  0  0  0  0  0  0  0
   -5.1636   -0.2781   -0.5952 O   0  0  0  0  0  0  0  0  0  0  0  0
    0.6280   -3.1565   -0.4817 O   0  0  0  0  0  0  0  0  0  0  0  0
    5.5592    2.8789    0.3611 H   0  0  0  0  0  0  0  0  0  0  0  0
    4.7596    3.2610   -1.1826 H   0  0  0  0  0  0  0  0  0  0  0  0
    4.1560    3.9736    0.3327 H   0  0  0  0  0  0  0  0  0  0  0  0
    3.7176    0.9542   -2.9133 H   0  0  0  0  0  0  0  0  0  0  0  0
    5.2668    0.9877   -2.0374 H   0  0  0  0  0  0  0  0  0  0  0  0
    4.3802   -0.5450   -2.2193 H   0  0  0  0  0  0  0  0  0  0  0  0
    2.4366   -1.5687   -1.4541 H   0  0  0  0  0  0  0  0  0  0  0  0
   -1.2849   -1.8806   -1.5457 H   0  0  0  0  0  0  0  0  0  0  0  0
   -3.3097   -0.4820   -1.5795 H   0  0  0  0  0  0  0  0  0  0  0  0
   -1.9885    1.5000    1.9719 H   0  0  0  0  0  0  0  0  0  0  0  0
    0.0307    0.0931    1.9993 H   0  0  0  0  0  0  0  0  0  0  0  0
   -3.8900    2.3100    0.4983 H   0  0  0  0  0  0  0  0  0  0  0  0
   -6.0435    2.7915   -0.0895 H   0  0  0  0  0  0  0  0  0  0  0  0
   -6.6231    1.8067   -1.4542 H   0  0  0  0  0  0  0  0  0  0  0  0
   -7.1053    1.3944    0.2089 H   0  0  0  0  0  0  0  0  0  0  0  0
  1  2  1  0  0  0  0
  2  3  2  0  0  0  0
  3  4  1  0  0  0  0
  4  5  1  0  0  0  0
  5  6  2  0  0  0  0
  2  6  1  0  0  0  0
  6  7  1  0  0  0  0
  5  8  1  0  0  0  0
  8  9  1  0  0  0  0
  9 10  2  0  0  0  0
  9 11  1  0  0  0  0
 11 12  2  0  0  0  0
 12 13  1  0  0  0  0
 13 14  2  0  0  0  0
 14 15  1  0  0  0  0
 15 16  2  0  0  0  0
 11 16  1  0  0  0  0
 14 17  1  0  0  0  0
 17 18  1  0  0  0  0
 18 19  1  0  0  0  0
 18 20  2  0  0  0  0
  9 21  2  0  0  0  0
  1 22  1  0  0  0  0
  1 23  1  0  0  0  0
  1 24  1  0  0  0  0
  7 25  1  0  0  0  0
  7 26  1  0  0  0  0
  7 27  1  0  0  0  0
  8 28  1  0  0  0  0
 12 29  1  0  0  0  0
 13 30  1  0  0  0  0
 15 31  1  0  0  0  0
 16 32  1  0  0  0  0
 17 33  1  0  0  0  0
 19 34  1  0  0  0  0
 19 35  1  0  0  0  0
 19 36  1  0  0  0  0
M  END
$$$$
