C8H10N2O3S
APtclcactv12151716323D 0   0.00000     0.00000
 
 24 24  0  0  0  0  0  0  0  0999 V2000
    2.2107    1.2545   -0.3034 C   0  0  0  0  0  0  0  0  0  0  0  0
    3.0672    2.1935   -1.1133 C   0  0  0  0  0  0  0  0  0  0  0  0
    1.6342    1.6589    0.6841 O   0  0  0  0  0  0  0  0  0  0  0  0
    2.0810   -0.0332   -0.6795 N   0  0  0  0  0  0  0  0  0  0  0  0
    1.1399   -1.0649    0.2105 S   0  0  0  0  0  0  0  0  0  0  0  0
    1.5268   -0.8919    1.5668 O   0  0  0  0  0  0  0  0  0  0  0  0
   -0.5215   -0.4906    0.0899 C   0  0  0  0  0  0  0  0  0  0  0  0
   -1.3383   -0.9504   -0.9269 C   0  0  0  0  0  0  0  0  0  0  0  0
   -2.6409   -0.5023   -1.0243 C   0  0  0  0  0  0  0  0  0  0  0  0
   -3.1305    0.4113   -0.0995 C   0  0  0  0  0  0  0  0  0  0  0  0
   -2.3074    0.8711    0.9206 C   0  0  0  0  0  0  0  0  0  0  0  0
   -1.0074    0.4146    1.0156 C   0  0  0  0  0  0  0  0  0  0  0  0
   -4.4474    0.8669   -0.1954 N   0  0  0  0  0  0  0  0  0  0  0  0
    1.1800   -2.3197   -0.4551 O   0  0  0  0  0  0  0  0  0  0  0  0
    3.0468    3.1851   -0.6613 H   0  0  0  0  0  0  0  0  0  0  0  0
    4.0926    1.8242   -1.1330 H   0  0  0  0  0  0  0  0  0  0  0  0
    2.6817    2.2501   -2.1313 H   0  0  0  0  0  0  0  0  0  0  0  0
    2.5390   -0.3556   -1.4714 H   0  0  0  0  0  0  0  0  0  0  0  0
   -0.9569   -1.6604   -1.6458 H   0  0  0  0  0  0  0  0  0  0  0  0
   -3.2782   -0.8615   -1.8188 H   0  0  0  0  0  0  0  0  0  0  0  0
   -2.6849    1.5814    1.6413 H   0  0  0  0  0  0  0  0  0  0  0  0
   -0.3670    0.7714    1.8086 H   0  0  0  0  0  0  0  0  0  0  0  0
   -5.0212    0.5453   -0.9083 H   0  0  0  0  0  0  0  0  0  0  0  0
   -4.7882    1.5048    0.4510 H   0  0  0  0  0  0  0  0  0  0  0  0
  1  2  1  0  0  0  0
  1  3  2  0  0  0  0
  1  4  1  0  0  0  0
  4  5  1  0  0  0  0
  5  6  2  0  0  0  0
  5  7  1  0  0  0  0
  7  8  2  0  0  0  0
  8  9  1  0  0  0  0
  9 10  2  0  0  0  0
 10 11  1  0  0  0  0
 11 12  2  0  0  0  0
  7 12  1  0  0  0  0
 10 13  1  0  0  0  0
  5 14  2  0  0  0  0
  2 15  1  0  0  0  0
  2 16  1  0  0  0  0
  2 17  1  0  0  0  0
  4 18  1  0  0  0  0
  8 19  1  0  0  0  0
  9 20  1  0  0  0  0
 11 21  1  0  0  0  0
 12 22  1  0  0  0  0
 13 23  1  0  0  0  0
 13 24  1  0  0  0  0
M  END
$$$$
