C11H13N3O3S
APtclcactv12211717343D 0   0.00000     0.00000
 
 31 32  0  0  0  0  0  0  0  0999 V2000
   -1.0364    1.7457    1.8455 C   0  0  0  0  0  0  0  0  0  0  0  0
   -0.9914    1.0753    0.5437 N   0  0  0  0  0  0  0  0  0  0  0  0
    0.2035    1.4500   -0.5399 S   0  0  0  0  0  0  0  0  0  0  0  0
    0.6547    2.7550   -0.2043 O   0  0  0  0  0  0  0  0  0  0  0  0
    1.5526    0.3609   -0.2259 C   0  0  0  0  0  0  0  0  0  0  0  0
    1.6239   -0.8554   -0.8800 C   0  0  0  0  0  0  0  0  0  0  0  0
    2.6799   -1.7113   -0.6362 C   0  0  0  0  0  0  0  0  0  0  0  0
    3.6712   -1.3492    0.2672 C   0  0  0  0  0  0  0  0  0  0  0  0
    3.5964   -0.1267    0.9224 C   0  0  0  0  0  0  0  0  0  0  0  0
    2.5405    0.7270    0.6697 C   0  0  0  0  0  0  0  0  0  0  0  0
    4.7403   -2.2127    0.5164 N   0  0  0  0  0  0  0  0  0  0  0  0
   -0.2980    1.1075   -1.8246 O   0  0  0  0  0  0  0  0  0  0  0  0
   -1.9525    0.1239    0.2178 C   0  0  0  0  0  0  0  0  0  0  0  0
   -2.0406   -0.5533   -0.8976 N   0  0  0  0  0  0  0  0  0  0  0  0
   -2.9857   -1.3073   -0.8838 O   0  0  0  0  0  0  0  0  0  0  0  0
   -3.6669   -1.2297    0.2687 C   0  0  0  0  0  0  0  0  0  0  0  0
   -3.0321   -0.3120    1.0323 C   0  0  0  0  0  0  0  0  0  0  0  0
   -4.8965   -2.0167    0.6424 C   0  0  0  0  0  0  0  0  0  0  0  0
   -1.6415    2.6491    1.7682 H   0  0  0  0  0  0  0  0  0  0  0  0
   -1.4763    1.0758    2.5842 H   0  0  0  0  0  0  0  0  0  0  0  0
   -0.0248    2.0112    2.1525 H   0  0  0  0  0  0  0  0  0  0  0  0
    0.8528   -1.1364   -1.5819 H   0  0  0  0  0  0  0  0  0  0  0  0
    2.7349   -2.6613   -1.1471 H   0  0  0  0  0  0  0  0  0  0  0  0
    4.3654    0.1579    1.6253 H   0  0  0  0  0  0  0  0  0  0  0  0
    2.4820    1.6778    1.1786 H   0  0  0  0  0  0  0  0  0  0  0  0
    4.7913   -3.0663    0.0585 H   0  0  0  0  0  0  0  0  0  0  0  0
    5.4319   -1.9588    1.1474 H   0  0  0  0  0  0  0  0  0  0  0  0
   -3.2901    0.0184    2.0277 H   0  0  0  0  0  0  0  0  0  0  0  0
   -5.1665   -2.6806   -0.1788 H   0  0  0  0  0  0  0  0  0  0  0  0
   -4.6923   -2.6076    1.5353 H   0  0  0  0  0  0  0  0  0  0  0  0
   -5.7202   -1.3310    0.8412 H   0  0  0  0  0  0  0  0  0  0  0  0
  1  2  1  0  0  0  0
  2  3  1  0  0  0  0
  3  4  2  0  0  0  0
  3  5  1  0  0  0  0
  5  6  2  0  0  0  0
  6  7  1  0  0  0  0
  7  8  2  0  0  0  0
  8  9  1  0  0  0  0
  9 10  2  0  0  0  0
  5 10  1  0  0  0  0
  8 11  1  0  0  0  0
  3 12  2  0  0  0  0
  2 13  1  0  0  0  0
 13 14  2  0  0  0  0
 14 15  1  0  0  0  0
 15 16  1  0  0  0  0
 16 17  2  0  0  0  0
 13 17  1  0  0  0  0
 16 18  1  0  0  0  0
  1 19  1  0  0  0  0
  1 20  1  0  0  0  0
  1 21  1  0  0  0  0
  6 22  1  0  0  0  0
  7 23  1  0  0  0  0
  9 24  1  0  0  0  0
 10 25  1  0  0  0  0
 11 26  1  0  0  0  0
 11 27  1  0  0  0  0
 17 28  1  0  0  0  0
 18 29  1  0  0  0  0
 18 30  1  0  0  0  0
 18 31  1  0  0  0  0
M  END
$$$$
