C8H10N2O3S
APtclcactv12151716323D 0   0.00000     0.00000
 
 24 24  0  0  0  0  0  0  0  0999 V2000
   -3.8685   -0.2210    0.0769 C   0  0  0  0  0  0  0  0  0  0  0  0
   -5.3519    0.0437    0.0556 C   0  0  0  0  0  0  0  0  0  0  0  0
   -3.4495   -1.2956    0.4521 O   0  0  0  0  0  0  0  0  0  0  0  0
   -3.0076    0.7345   -0.3262 N   0  0  0  0  0  0  0  0  0  0  0  0
   -1.6285    0.5254   -0.2158 C   0  0  0  0  0  0  0  0  0  0  0  0
   -1.0994   -0.7439   -0.4096 C   0  0  0  0  0  0  0  0  0  0  0  0
    0.2623   -0.9470   -0.2999 C   0  0  0  0  0  0  0  0  0  0  0  0
    1.0986    0.1118    0.0031 C   0  0  0  0  0  0  0  0  0  0  0  0
    2.8351   -0.1517    0.1427 S   0  0  0  0  0  0  0  0  0  0  0  0
    3.3349    0.8944    0.9644 O   0  0  0  0  0  0  0  0  0  0  0  0
    3.0089   -1.5289    0.4464 O   0  0  0  0  0  0  0  0  0  0  0  0
    3.4888    0.0817   -1.3608 N   0  0  0  0  0  0  0  0  0  0  0  0
    0.5749    1.3769    0.1963 C   0  0  0  0  0  0  0  0  0  0  0  0
   -0.7853    1.5878    0.0823 C   0  0  0  0  0  0  0  0  0  0  0  0
   -5.6599    0.4630    1.0134 H   0  0  0  0  0  0  0  0  0  0  0  0
   -5.5835    0.7500   -0.7416 H   0  0  0  0  0  0  0  0  0  0  0  0
   -5.8851   -0.8905   -0.1204 H   0  0  0  0  0  0  0  0  0  0  0  0
   -3.3441    1.5671   -0.6928 H   0  0  0  0  0  0  0  0  0  0  0  0
   -1.7521   -1.5714   -0.6456 H   0  0  0  0  0  0  0  0  0  0  0  0
    0.6743   -1.9339   -0.4506 H   0  0  0  0  0  0  0  0  0  0  0  0
    2.9163    0.3183   -2.1072 H   0  0  0  0  0  0  0  0  0  0  0  0
    4.4443   -0.0181   -1.4951 H   0  0  0  0  0  0  0  0  0  0  0  0
    1.2307    2.2018    0.4328 H   0  0  0  0  0  0  0  0  0  0  0  0
   -1.1936    2.5762    0.2330 H   0  0  0  0  0  0  0  0  0  0  0  0
  1  2  1  0  0  0  0
  1  3  2  0  0  0  0
  1  4  1  0  0  0  0
  4  5  1  0  0  0  0
  5  6  2  0  0  0  0
  6  7  1  0  0  0  0
  7  8  2  0  0  0  0
  8  9  1  0  0  0  0
  9 10  2  0  0  0  0
  9 11  2  0  0  0  0
  9 12  1  0  0  0  0
  8 13  1  0  0  0  0
 13 14  2  0  0  0  0
  5 14  1  0  0  0  0
  2 15  1  0  0  0  0
  2 16  1  0  0  0  0
  2 17  1  0  0  0  0
  4 18  1  0  0  0  0
  6 19  1  0  0  0  0
  7 20  1  0  0  0  0
 12 21  1  0  0  0  0
 12 22  1  0  0  0  0
 13 23  1  0  0  0  0
 14 24  1  0  0  0  0
M  END
$$$$
