C15H16O2
APtclcactv12211717073D 0   0.00000     0.00000
 
 33 34  0  0  0  0  0  0  0  0999 V2000
    0.4000   -0.6146    0.5774 C   0  0  0  0  0  0  0  0  0  0  0  0
   -1.8889   -1.4697    0.4094 C   0  0  0  0  0  0  0  0  0  0  0  0
   -2.7929    1.0924   -0.2605 C   0  0  0  0  0  0  0  0  0  0  0  0
   -0.5036    1.9443   -0.0918 C   0  0  0  0  0  0  0  0  0  0  0  0
   -3.2059   -1.2381    0.1624 C   0  0  0  0  0  0  0  0  0  0  0  0
    0.8140    1.7092    0.1566 C   0  0  0  0  0  0  0  0  0  0  0  0
    2.7304    0.2108    0.7589 C   0  0  0  0  0  0  0  0  0  0  0  0
    3.4384   -0.1556   -0.5471 C   0  0  0  0  0  0  0  0  0  0  0  0
   -5.8410   -0.8960   -0.3062 C   0  0  0  0  0  0  0  0  0  0  0  0
    5.8291   -0.7529   -1.4078 C   0  0  0  0  0  0  0  0  0  0  0  0
    1.2644    0.4335    0.4901 C   0  0  0  0  0  0  0  0  0  0  0  0
   -3.6604    0.0413   -0.1727 C   0  0  0  0  0  0  0  0  0  0  0  0
    5.3382   -0.2566    0.8421 O   0  0  0  0  0  0  0  0  0  0  0  0
    4.9044   -0.3783   -0.2783 C   0  0  0  0  0  0  0  0  0  0  0  0
   -4.9827    0.2414   -0.4135 O   0  0  0  0  0  0  0  0  0  0  0  0
   -0.9675   -0.4109    0.3281 C   0  0  0  0  0  0  0  0  0  0  0  0
   -1.4259    0.8870   -0.0114 C   0  0  0  0  0  0  0  0  0  0  0  0
    0.7644   -1.5987    0.8326 H   0  0  0  0  0  0  0  0  0  0  0  0
   -1.5522   -2.4629    0.6675 H   0  0  0  0  0  0  0  0  0  0  0  0
   -3.1558    2.0758   -0.5205 H   0  0  0  0  0  0  0  0  0  0  0  0
   -0.8385    2.9384   -0.3489 H   0  0  0  0  0  0  0  0  0  0  0  0
   -3.9109   -2.0538    0.2258 H   0  0  0  0  0  0  0  0  0  0  0  0
    1.5208    2.5233    0.0938 H   0  0  0  0  0  0  0  0  0  0  0  0
    2.8490   -0.6010    1.4766 H   0  0  0  0  0  0  0  0  0  0  0  0
    3.1678    1.1225    1.1659 H   0  0  0  0  0  0  0  0  0  0  0  0
    3.0010   -1.0672   -0.9541 H   0  0  0  0  0  0  0  0  0  0  0  0
    3.3198    0.6562   -1.2648 H   0  0  0  0  0  0  0  0  0  0  0  0
   -5.7852   -1.2993    0.7049 H   0  0  0  0  0  0  0  0  0  0  0  0
   -6.8671   -0.5986   -0.5227 H   0  0  0  0  0  0  0  0  0  0  0  0
   -5.5255   -1.6578   -1.0191 H   0  0  0  0  0  0  0  0  0  0  0  0
    5.8163    0.0324   -2.1636 H   0  0  0  0  0  0  0  0  0  0  0  0
    6.8423   -0.8711   -1.0238 H   0  0  0  0  0  0  0  0  0  0  0  0
    5.4975   -1.6910   -1.8529 H   0  0  0  0  0  0  0  0  0  0  0  0
 16 17  1  0  0  0  0
  1 16  2  0  0  0  0
  2 16  1  0  0  0  0
  3 17  1  0  0  0  0
  4 17  2  0  0  0  0
  1 11  1  0  0  0  0
  2  5  2  0  0  0  0
  3 12  2  0  0  0  0
  4  6  1  0  0  0  0
  7 11  1  0  0  0  0
 12 15  1  0  0  0  0
  7  8  1  0  0  0  0
  9 15  1  0  0  0  0
  8 14  1  0  0  0  0
 10 14  1  0  0  0  0
 13 14  2  0  0  0  0
  6 11  2  0  0  0  0
  5 12  1  0  0  0  0
  1 18  1  0  0  0  0
  2 19  1  0  0  0  0
  3 20  1  0  0  0  0
  4 21  1  0  0  0  0
  5 22  1  0  0  0  0
  6 23  1  0  0  0  0
  7 24  1  0  0  0  0
  7 25  1  0  0  0  0
  8 26  1  0  0  0  0
  8 27  1  0  0  0  0
  9 28  1  0  0  0  0
  9 29  1  0  0  0  0
  9 30  1  0  0  0  0
 10 31  1  0  0  0  0
 10 32  1  0  0  0  0
 10 33  1  0  0  0  0
M  END
$$$$
