C17H27NO4
APtclcactv12211717153D 0   0.00000     0.00000
 
 49 50  0  0  1  0  0  0  0  0999 V2000
    4.0730    1.6135    0.5178 C   0  0  2  0  0  0  0  0  0  0  0  0
    5.0935    0.8201   -0.3068 C   0  0  1  0  0  0  0  0  0  0  0  0
    3.4449   -2.5287    0.1513 C   0  0  0  0  0  0  0  0  0  0  0  0
    1.0745   -2.2281    0.1400 C   0  0  0  0  0  0  0  0  0  0  0  0
    2.1739   -3.0651    0.1520 C   0  0  0  0  0  0  0  0  0  0  0  0
   -1.1114   -0.6496    0.1178 C   0  0  0  0  0  0  0  0  0  0  0  0
   -3.5706   -0.2294   -0.0173 C   0  0  0  0  0  0  0  0  0  0  0  0
   -6.2380   -0.6198    0.9792 C   0  0  0  0  0  0  0  0  0  0  0  0
   -5.9858   -0.6903   -1.5056 C   0  0  0  0  0  0  0  0  0  0  0  0
   -6.9824    1.3206   -0.4076 C   0  0  0  0  0  0  0  0  0  0  0  0
    3.6178    3.5723    0.7573 H   0  0  0  0  0  0  0  0  0  0  0  0
    5.3579    0.4097   -2.2722 H   0  0  0  0  0  0  0  0  0  0  0  0
   -2.2675    0.6549    2.1150 H   0  0  0  0  0  0  0  0  0  0  0  0
   -4.4051    1.4141   -0.9343 H   0  0  0  0  0  0  0  0  0  0  0  0
    1.2570   -0.8560    0.1247 C   0  0  0  0  0  0  0  0  0  0  0  0
    2.6706    1.1857    0.0898 C   0  0  0  0  0  0  0  0  0  0  0  0
    5.0490   -0.6380    0.1455 C   0  0  0  0  0  0  0  0  0  0  0  0
    4.2436    3.0119    0.2782 O   0  0  0  0  0  0  0  0  0  0  0  0
    4.7610    0.9041   -1.6940 O   0  0  0  0  0  0  0  0  0  0  0  0
   -2.1333    1.1834    1.3164 O   0  0  0  0  0  0  0  0  0  0  0  0
    0.1769   -0.0313    0.1133 O   0  0  0  0  0  0  0  0  0  0  0  0
    2.5416   -0.3146    0.1210 C   0  0  0  0  0  0  0  0  0  0  0  0
    3.6330   -1.1520    0.1379 C   0  0  0  0  0  0  0  0  0  0  0  0
   -2.1953    0.4301    0.1036 C   0  0  0  0  0  0  0  0  0  0  0  0
   -5.9380    0.2110   -0.2701 C   0  0  0  0  0  0  0  0  0  0  0  0
   -4.6014    0.8087   -0.1514 N   0  0  0  0  0  0  0  0  0  0  0  0
    1.9386    1.6236    0.7684 H   0  0  0  0  0  0  0  0  0  0  0  0
    2.4795    1.5419   -0.9225 H   0  0  0  0  0  0  0  0  0  0  0  0
    5.6544   -1.2424   -0.5300 H   0  0  0  0  0  0  0  0  0  0  0  0
    5.4535   -0.7138    1.1548 H   0  0  0  0  0  0  0  0  0  0  0  0
    4.3023   -3.1853    0.1608 H   0  0  0  0  0  0  0  0  0  0  0  0
    0.0773   -2.6426    0.1420 H   0  0  0  0  0  0  0  0  0  0  0  0
    4.2135    1.4029    1.5779 H   0  0  0  0  0  0  0  0  0  0  0  0
    6.0921    1.2250   -0.1430 H   0  0  0  0  0  0  0  0  0  0  0  0
    2.0385   -4.1365    0.1617 H   0  0  0  0  0  0  0  0  0  0  0  0
   -1.2150   -1.2800   -0.7653 H   0  0  0  0  0  0  0  0  0  0  0  0
   -1.2183   -1.2600    1.0146 H   0  0  0  0  0  0  0  0  0  0  0  0
   -2.0351    1.0946   -0.7454 H   0  0  0  0  0  0  0  0  0  0  0  0
   -3.5882   -0.8745   -0.8957 H   0  0  0  0  0  0  0  0  0  0  0  0
   -3.7679   -0.8243    0.8745 H   0  0  0  0  0  0  0  0  0  0  0  0
   -6.2040    0.0223    1.8593 H   0  0  0  0  0  0  0  0  0  0  0  0
   -7.2298   -1.0632    0.8911 H   0  0  0  0  0  0  0  0  0  0  0  0
   -5.4940   -1.4103    1.0771 H   0  0  0  0  0  0  0  0  0  0  0  0
   -5.2418   -1.4808   -1.4076 H   0  0  0  0  0  0  0  0  0  0  0  0
   -6.9776   -1.1337   -1.5937 H   0  0  0  0  0  0  0  0  0  0  0  0
   -5.7721   -0.0984   -2.3956 H   0  0  0  0  0  0  0  0  0  0  0  0
   -6.7687    1.9125   -1.2976 H   0  0  0  0  0  0  0  0  0  0  0  0
   -7.9742    0.8772   -0.4957 H   0  0  0  0  0  0  0  0  0  0  0  0
   -6.9484    1.9627    0.4726 H   0  0  0  0  0  0  0  0  0  0  0  0
 22 23  2  0  0  0  0
 15 22  1  0  0  0  0
 16 22  1  0  0  0  0
 17 23  1  0  0  0  0
  3 23  1  0  0  0  0
  4 15  2  0  0  0  0
 15 21  1  0  0  0  0
  1 16  1  0  0  0  0
  2 17  1  0  0  0  0
  3  5  2  0  0  0  0
  6 21  1  0  0  0  0
  1 18  1  0  0  0  0
  2 19  1  0  0  0  0
  6 24  1  0  0  0  0
  7 24  1  0  0  0  0
 20 24  1  0  0  0  0
  7 26  1  0  0  0  0
 25 26  1  0  0  0  0
  8 25  1  0  0  0  0
  9 25  1  0  0  0  0
 10 25  1  0  0  0  0
  4  5  1  0  0  0  0
  1  2  1  0  0  0  0
 16 27  1  0  0  0  0
 16 28  1  0  0  0  0
 17 29  1  0  0  0  0
 17 30  1  0  0  0  0
  3 31  1  0  0  0  0
  4 32  1  0  0  0  0
  1 33  1  0  0  0  0
  2 34  1  0  0  0  0
  5 35  1  0  0  0  0
  6 36  1  0  0  0  0
  6 37  1  0  0  0  0
 11 18  1  0  0  0  0
 12 19  1  0  0  0  0
 24 38  1  0  0  0  0
  7 39  1  0  0  0  0
  7 40  1  0  0  0  0
 13 20  1  0  0  0  0
 14 26  1  0  0  0  0
  8 41  1  0  0  0  0
  8 42  1  0  0  0  0
  8 43  1  0  0  0  0
  9 44  1  0  0  0  0
  9 45  1  0  0  0  0
  9 46  1  0  0  0  0
 10 47  1  0  0  0  0
 10 48  1  0  0  0  0
 10 49  1  0  0  0  0
M  END
$$$$
