C12H12N2O3
APtclcactv12111704583D 0   0.00000     0.00000
 
 29 30  0  0  0  0  0  0  0  0999 V2000
   -2.6771    1.9196   -0.0968 C   0  0  0  0  0  0  0  0  0  0  0  0
   -1.3117    2.1342   -0.1448 C   0  0  0  0  0  0  0  0  0  0  0  0
   -0.8123   -2.6704    0.4329 C   0  0  0  0  0  0  0  0  0  0  0  0
   -4.6442    0.3983    0.1193 C   0  0  0  0  0  0  0  0  0  0  0  0
   -1.0482   -3.3047   -0.9393 C   0  0  0  0  0  0  0  0  0  0  0  0
   -3.1558    0.6291    0.0679 C   0  0  0  0  0  0  0  0  0  0  0  0
    1.5253    2.2577   -0.2048 O   0  0  0  0  0  0  0  0  0  0  0  0
    3.9096   -1.0314    0.1567 O   0  0  0  0  0  0  0  0  0  0  0  0
    3.8916    1.1734   -0.1118 O   0  0  0  0  0  0  0  0  0  0  0  0
    3.2624   -0.0088    0.0425 C   0  0  0  0  0  0  0  0  0  0  0  0
    0.9961    1.1692   -0.0642 C   0  0  0  0  0  0  0  0  0  0  0  0
    1.7937   -0.0612    0.0728 C   0  0  0  0  0  0  0  0  0  0  0  0
    4.8584    1.1576   -0.1257 H   0  0  0  0  0  0  0  0  0  0  0  0
   -1.0234   -0.2550    0.1414 C   0  0  0  0  0  0  0  0  0  0  0  0
   -0.4699    1.0265   -0.0234 C   0  0  0  0  0  0  0  0  0  0  0  0
    1.1364   -1.2641    0.2297 C   0  0  0  0  0  0  0  0  0  0  0  0
   -0.2002   -1.3504    0.2620 N   0  0  0  0  0  0  0  0  0  0  0  0
   -2.3427   -0.3997    0.1801 N   0  0  0  0  0  0  0  0  0  0  0  0
   -3.3632    2.7493   -0.1823 H   0  0  0  0  0  0  0  0  0  0  0  0
   -0.9088    3.1280   -0.2726 H   0  0  0  0  0  0  0  0  0  0  0  0
    1.7197   -2.1675    0.3308 H   0  0  0  0  0  0  0  0  0  0  0  0
   -4.9870    0.4666    1.1518 H   0  0  0  0  0  0  0  0  0  0  0  0
   -5.1499    1.1537   -0.4822 H   0  0  0  0  0  0  0  0  0  0  0  0
   -4.8721   -0.5922   -0.2744 H   0  0  0  0  0  0  0  0  0  0  0  0
   -1.7644   -2.5648    0.9529 H   0  0  0  0  0  0  0  0  0  0  0  0
   -0.1475   -3.3062    1.0177 H   0  0  0  0  0  0  0  0  0  0  0  0
   -0.0961   -3.4103   -1.4593 H   0  0  0  0  0  0  0  0  0  0  0  0
   -1.5036   -4.2868   -0.8121 H   0  0  0  0  0  0  0  0  0  0  0  0
   -1.7130   -2.6689   -1.5240 H   0  0  0  0  0  0  0  0  0  0  0  0
 14 17  1  0  0  0  0
 16 17  1  0  0  0  0
  3 17  1  0  0  0  0
 14 18  1  0  0  0  0
 14 15  2  0  0  0  0
  6 18  2  0  0  0  0
  1  6  1  0  0  0  0
  4  6  1  0  0  0  0
  1  2  2  0  0  0  0
  2 15  1  0  0  0  0
 11 15  1  0  0  0  0
  7 11  2  0  0  0  0
 11 12  1  0  0  0  0
 12 16  2  0  0  0  0
 10 12  1  0  0  0  0
  8 10  2  0  0  0  0
  9 10  1  0  0  0  0
  3  5  1  0  0  0  0
  1 19  1  0  0  0  0
  2 20  1  0  0  0  0
 16 21  1  0  0  0  0
  9 13  1  0  0  0  0
  4 22  1  0  0  0  0
  4 23  1  0  0  0  0
  4 24  1  0  0  0  0
  3 25  1  0  0  0  0
  3 26  1  0  0  0  0
  5 27  1  0  0  0  0
  5 28  1  0  0  0  0
  5 29  1  0  0  0  0
M  END
$$$$
