C17H21NO2
APtclcactv12211717373D 0   0.00000     0.00000
 
 41 42  0  0  0  0  0  0  0  0999 V2000
    1.1431    1.7002    0.3946 C   0  0  0  0  0  0  0  0  0  0  0  0
    2.6245   -1.5532   -0.5215 C   0  0  0  0  0  0  0  0  0  0  0  0
    2.2746    2.3929    0.8158 C   0  0  0  0  0  0  0  0  0  0  0  0
    3.5035    1.8065    0.8003 C   0  0  0  0  0  0  0  0  0  0  0  0
    4.8916   -0.1550    0.3249 C   0  0  0  0  0  0  0  0  0  0  0  0
    3.8540   -2.1376   -0.5352 C   0  0  0  0  0  0  0  0  0  0  0  0
    4.9844   -1.4401   -0.1136 C   0  0  0  0  0  0  0  0  0  0  0  0
   -4.5290   -1.2348    0.3363 C   0  0  0  0  0  0  0  0  0  0  0  0
   -3.7856    1.1913    0.3510 C   0  0  0  0  0  0  0  0  0  0  0  0
   -1.3799    1.3503   -1.4654 C   0  0  0  0  0  0  0  0  0  0  0  0
   -4.4562   -1.7885    1.7608 C   0  0  0  0  0  0  0  0  0  0  0  0
   -4.4002    1.7673   -0.9263 C   0  0  0  0  0  0  0  0  0  0  0  0
    1.2333    0.4099   -0.0466 C   0  0  0  0  0  0  0  0  0  0  0  0
   -2.0099   -1.7685   -0.4681 O   0  0  0  0  0  0  0  0  0  0  0  0
   -2.2383   -0.6064   -0.2068 C   0  0  0  0  0  0  0  0  0  0  0  0
    0.1201   -0.2525   -0.4547 O   0  0  0  0  0  0  0  0  0  0  0  0
   -1.1318    0.4141   -0.2809 C   0  0  0  0  0  0  0  0  0  0  0  0
    2.4897   -0.2285   -0.0757 C   0  0  0  0  0  0  0  0  0  0  0  0
    3.6386    0.4811    0.3537 C   0  0  0  0  0  0  0  0  0  0  0  0
   -3.4816   -0.2276    0.1498 N   0  0  0  0  0  0  0  0  0  0  0  0
   -1.1097    0.9937    0.6419 H   0  0  0  0  0  0  0  0  0  0  0  0
   -0.5069    1.9853   -1.6156 H   0  0  0  0  0  0  0  0  0  0  0  0
   -1.5587    0.7598   -2.3639 H   0  0  0  0  0  0  0  0  0  0  0  0
   -2.2510    1.9726   -1.2603 H   0  0  0  0  0  0  0  0  0  0  0  0
    0.1798    2.1878    0.4211 H   0  0  0  0  0  0  0  0  0  0  0  0
    1.7574   -2.1055   -0.8522 H   0  0  0  0  0  0  0  0  0  0  0  0
    2.1763    3.4118    1.1600 H   0  0  0  0  0  0  0  0  0  0  0  0
   -4.3838   -2.0462   -0.3768 H   0  0  0  0  0  0  0  0  0  0  0  0
   -5.5052   -0.7782    0.1734 H   0  0  0  0  0  0  0  0  0  0  0  0
   -2.8678    1.7296    0.5873 H   0  0  0  0  0  0  0  0  0  0  0  0
   -4.4919    1.2984    1.1743 H   0  0  0  0  0  0  0  0  0  0  0  0
    4.3714    2.3584    1.1298 H   0  0  0  0  0  0  0  0  0  0  0  0
    5.7761    0.3731    0.6494 H   0  0  0  0  0  0  0  0  0  0  0  0
    3.9549   -3.1566   -0.8783 H   0  0  0  0  0  0  0  0  0  0  0  0
   -3.4522   -2.1670    1.9526 H   0  0  0  0  0  0  0  0  0  0  0  0
   -4.6873   -0.9949    2.4713 H   0  0  0  0  0  0  0  0  0  0  0  0
   -5.1774   -2.5981    1.8731 H   0  0  0  0  0  0  0  0  0  0  0  0
   -3.7538    1.5413   -1.7744 H   0  0  0  0  0  0  0  0  0  0  0  0
   -5.3821    1.3231   -1.0893 H   0  0  0  0  0  0  0  0  0  0  0  0
   -4.5024    2.8478   -0.8251 H   0  0  0  0  0  0  0  0  0  0  0  0
    5.9484   -1.9266   -0.1350 H   0  0  0  0  0  0  0  0  0  0  0  0
 16 17  1  0  0  0  0
 13 16  1  0  0  0  0
 15 17  1  0  0  0  0
 10 17  1  0  0  0  0
 13 18  2  0  0  0  0
  1 13  1  0  0  0  0
 15 20  1  0  0  0  0
 14 15  2  0  0  0  0
 18 19  1  0  0  0  0
  2 18  1  0  0  0  0
  1  3  2  0  0  0  0
  8 20  1  0  0  0  0
  9 20  1  0  0  0  0
  4 19  2  0  0  0  0
  5 19  1  0  0  0  0
  2  6  2  0  0  0  0
  3  4  1  0  0  0  0
  8 11  1  0  0  0  0
  9 12  1  0  0  0  0
  5  7  2  0  0  0  0
  6  7  1  0  0  0  0
 17 21  1  0  0  0  0
 10 22  1  0  0  0  0
 10 23  1  0  0  0  0
 10 24  1  0  0  0  0
  1 25  1  0  0  0  0
  2 26  1  0  0  0  0
  3 27  1  0  0  0  0
  8 28  1  0  0  0  0
  8 29  1  0  0  0  0
  9 30  1  0  0  0  0
  9 31  1  0  0  0  0
  4 32  1  0  0  0  0
  5 33  1  0  0  0  0
  6 34  1  0  0  0  0
 11 35  1  0  0  0  0
 11 36  1  0  0  0  0
 11 37  1  0  0  0  0
 12 38  1  0  0  0  0
 12 39  1  0  0  0  0
 12 40  1  0  0  0  0
  7 41  1  0  0  0  0
M  END
$$$$
