C12H16Cl2N2O
APtclcactv12111705003D 0   0.00000     0.00000
 
 33 33  0  0  0  0  0  0  0  0999 V2000
    1.7705   -1.1307   -0.1467 C   0  0  0  0  0  0  0  0  0  0  0  0
    0.6738    1.0035   -0.2896 C   0  0  0  0  0  0  0  0  0  0  0  0
    1.8974    1.6366   -0.1943 C   0  0  0  0  0  0  0  0  0  0  0  0
   -4.0853   -0.5377    0.8033 C   0  0  0  0  0  0  0  0  0  0  0  0
   -4.8354    0.2919   -0.2407 C   0  0  0  0  0  0  0  0  0  0  0  0
   -6.0750    0.9187    0.4007 C   0  0  0  0  0  0  0  0  0  0  0  0
   -2.9868   -2.4584   -0.4388 C   0  0  0  0  0  0  0  0  0  0  0  0
   -6.8251    1.7484   -0.6433 C   0  0  0  0  0  0  0  0  0  0  0  0
   -0.7057   -1.8705   -0.8367 H   0  0  0  0  0  0  0  0  0  0  0  0
    0.6067   -0.3835   -0.2660 C   0  0  0  0  0  0  0  0  0  0  0  0
    2.9931   -0.4926   -0.0516 C   0  0  0  0  0  0  0  0  0  0  0  0
    3.0567    0.8905   -0.0750 C   0  0  0  0  0  0  0  0  0  0  0  0
   -1.6513    0.6210    0.7233 O   0  0  0  0  0  0  0  0  0  0  0  0
   -1.7248   -0.4751    0.2020 C   0  0  0  0  0  0  0  0  0  0  0  0
    4.4495   -1.4257    0.0976 Cl  0  0  0  0  0  0  0  0  0  0  0  0
    4.5932    1.6896    0.0451 Cl  0  0  0  0  0  0  0  0  0  0  0  0
   -0.6328   -1.0272   -0.3629 N   0  0  0  0  0  0  0  0  0  0  0  0
   -2.8983   -1.1379    0.1892 N   0  0  0  0  0  0  0  0  0  0  0  0
    1.7204   -2.2093   -0.1237 H   0  0  0  0  0  0  0  0  0  0  0  0
   -0.2305    1.5866   -0.3820 H   0  0  0  0  0  0  0  0  0  0  0  0
    1.9496    2.7152   -0.2130 H   0  0  0  0  0  0  0  0  0  0  0  0
   -3.7812    0.1058    1.6288 H   0  0  0  0  0  0  0  0  0  0  0  0
   -4.7381   -1.3259    1.1785 H   0  0  0  0  0  0  0  0  0  0  0  0
   -2.7688   -3.2282    0.3014 H   0  0  0  0  0  0  0  0  0  0  0  0
   -3.9925   -2.6071   -0.8321 H   0  0  0  0  0  0  0  0  0  0  0  0
   -2.2651   -2.5226   -1.2531 H   0  0  0  0  0  0  0  0  0  0  0  0
   -4.1825    1.0801   -0.6158 H   0  0  0  0  0  0  0  0  0  0  0  0
   -5.1394   -0.3517   -1.0662 H   0  0  0  0  0  0  0  0  0  0  0  0
   -6.7278    0.1305    0.7758 H   0  0  0  0  0  0  0  0  0  0  0  0
   -5.7710    1.5623    1.2262 H   0  0  0  0  0  0  0  0  0  0  0  0
   -7.7083    2.1949   -0.1864 H   0  0  0  0  0  0  0  0  0  0  0  0
   -6.1723    2.5365   -1.0185 H   0  0  0  0  0  0  0  0  0  0  0  0
   -7.1292    1.1048   -1.4688 H   0  0  0  0  0  0  0  0  0  0  0  0
 10 17  1  0  0  0  0
  1 10  2  0  0  0  0
  2 10  1  0  0  0  0
 14 17  1  0  0  0  0
  1 11  1  0  0  0  0
  2  3  2  0  0  0  0
 14 18  1  0  0  0  0
 13 14  2  0  0  0  0
 11 12  2  0  0  0  0
 11 15  1  0  0  0  0
  4 18  1  0  0  0  0
  7 18  1  0  0  0  0
 12 16  1  0  0  0  0
  4  5  1  0  0  0  0
  5  6  1  0  0  0  0
  6  8  1  0  0  0  0
  3 12  1  0  0  0  0
  9 17  1  0  0  0  0
  1 19  1  0  0  0  0
  2 20  1  0  0  0  0
  3 21  1  0  0  0  0
  4 22  1  0  0  0  0
  4 23  1  0  0  0  0
  7 24  1  0  0  0  0
  7 25  1  0  0  0  0
  7 26  1  0  0  0  0
  5 27  1  0  0  0  0
  5 28  1  0  0  0  0
  6 29  1  0  0  0  0
  6 30  1  0  0  0  0
  8 31  1  0  0  0  0
  8 32  1  0  0  0  0
  8 33  1  0  0  0  0
M  END
$$$$
