C10H18O
APtclcactv12211717283D 0   0.00000     0.00000
 
 29 28  0  0  0  0  0  0  0  0999 V2000
   -2.1091    2.5101    0.1855 O   0  0  0  0  0  0  0  0  0  0  0  0
   -1.8292    1.4024   -0.6729 C   0  0  0  0  0  0  0  0  0  0  0  0
   -2.5422    0.1775   -0.1610 C   0  0  0  0  0  0  0  0  0  0  0  0
   -1.9092   -0.9673   -0.0904 C   0  0  0  0  0  0  0  0  0  0  0  0
   -0.5142   -1.0924   -0.6465 C   0  0  0  0  0  0  0  0  0  0  0  0
    0.5034   -0.8111    0.4608 C   0  0  0  0  0  0  0  0  0  0  0  0
    1.8984   -0.9363   -0.0952 C   0  0  0  0  0  0  0  0  0  0  0  0
    2.7605    0.0356    0.0736 C   0  0  0  0  0  0  0  0  0  0  0  0
    2.4263    1.1897    0.9831 C   0  0  0  0  0  0  0  0  0  0  0  0
    4.0865   -0.0007   -0.6416 C   0  0  0  0  0  0  0  0  0  0  0  0
   -2.5761   -2.1590    0.5469 C   0  0  0  0  0  0  0  0  0  0  0  0
   -1.6817    3.3345   -0.0842 H   0  0  0  0  0  0  0  0  0  0  0  0
   -2.1741    1.6285   -1.6819 H   0  0  0  0  0  0  0  0  0  0  0  0
   -0.7551    1.2175   -0.6890 H   0  0  0  0  0  0  0  0  0  0  0  0
   -3.5751    0.2433    0.1477 H   0  0  0  0  0  0  0  0  0  0  0  0
   -0.3648   -2.1020   -1.0293 H   0  0  0  0  0  0  0  0  0  0  0  0
   -0.3795   -0.3738   -1.4549 H   0  0  0  0  0  0  0  0  0  0  0  0
    0.3541    0.1985    0.8436 H   0  0  0  0  0  0  0  0  0  0  0  0
    0.3687   -1.5298    1.2692 H   0  0  0  0  0  0  0  0  0  0  0  0
    2.1875   -1.8271   -0.6330 H   0  0  0  0  0  0  0  0  0  0  0  0
    1.4760    0.9967    1.4809 H   0  0  0  0  0  0  0  0  0  0  0  0
    3.2116    1.3026    1.7305 H   0  0  0  0  0  0  0  0  0  0  0  0
    2.3494    2.1047    0.3958 H   0  0  0  0  0  0  0  0  0  0  0  0
    3.9921    0.4958   -1.6074 H   0  0  0  0  0  0  0  0  0  0  0  0
    4.8374    0.5127   -0.0410 H   0  0  0  0  0  0  0  0  0  0  0  0
    4.3891   -1.0367   -0.7937 H   0  0  0  0  0  0  0  0  0  0  0  0
   -3.1248   -2.7171   -0.2118 H   0  0  0  0  0  0  0  0  0  0  0  0
   -1.8189   -2.8026    0.9947 H   0  0  0  0  0  0  0  0  0  0  0  0
   -3.2668   -1.8193    1.3186 H   0  0  0  0  0  0  0  0  0  0  0  0
  1  2  1  0  0  0  0
  2  3  1  0  0  0  0
  3  4  2  0  0  0  0
  4  5  1  0  0  0  0
  5  6  1  0  0  0  0
  6  7  1  0  0  0  0
  7  8  2  0  0  0  0
  8  9  1  0  0  0  0
  8 10  1  0  0  0  0
  4 11  1  0  0  0  0
  1 12  1  0  0  0  0
  2 13  1  0  0  0  0
  2 14  1  0  0  0  0
  3 15  1  0  0  0  0
  5 16  1  0  0  0  0
  5 17  1  0  0  0  0
  6 18  1  0  0  0  0
  6 19  1  0  0  0  0
  7 20  1  0  0  0  0
  9 21  1  0  0  0  0
  9 22  1  0  0  0  0
  9 23  1  0  0  0  0
 10 24  1  0  0  0  0
 10 25  1  0  0  0  0
 10 26  1  0  0  0  0
 11 27  1  0  0  0  0
 11 28  1  0  0  0  0
 11 29  1  0  0  0  0
M  END
$$$$
