C17H18N2O6
APtclcactv12211717373D 0   0.00000     0.00000
 
 43 44  0  0  0  0  0  0  0  0999 V2000
   -0.0956    0.2153    2.1572 C   0  0  0  0  0  0  0  0  0  0  0  0
    1.1436    2.6426    1.6924 C   0  0  0  0  0  0  0  0  0  0  0  0
    0.2285    1.0400    3.2179 C   0  0  0  0  0  0  0  0  0  0  0  0
    0.8480    2.2540    2.9855 C   0  0  0  0  0  0  0  0  0  0  0  0
    0.9902   -3.9459    0.2818 C   0  0  0  0  0  0  0  0  0  0  0  0
   -3.5479   -2.0796    0.2205 C   0  0  0  0  0  0  0  0  0  0  0  0
    3.9651   -0.3929   -1.3610 C   0  0  0  0  0  0  0  0  0  0  0  0
   -3.1240    2.5213   -1.4603 C   0  0  0  0  0  0  0  0  0  0  0  0
   -1.5040   -3.5323    1.0990 H   0  0  0  0  0  0  0  0  0  0  0  0
    0.1996    0.6042    0.8638 C   0  0  0  0  0  0  0  0  0  0  0  0
    0.8193    1.8176    0.6314 C   0  0  0  0  0  0  0  0  0  0  0  0
    2.7045   -2.5247   -0.5190 O   0  0  0  0  0  0  0  0  0  0  0  0
   -3.7475    0.1275   -0.6094 O   0  0  0  0  0  0  0  0  0  0  0  0
    0.3362    2.0294   -1.6487 O   0  0  0  0  0  0  0  0  0  0  0  0
    2.0292   -1.5143   -0.5808 C   0  0  0  0  0  0  0  0  0  0  0  0
   -2.5557    0.3704   -0.6450 C   0  0  0  0  0  0  0  0  0  0  0  0
    2.5822   -0.3579   -1.0029 O   0  0  0  0  0  0  0  0  0  0  0  0
   -2.1253    1.5772   -1.0688 O   0  0  0  0  0  0  0  0  0  0  0  0
   -0.1538   -0.2950   -0.2927 C   0  0  0  0  0  0  0  0  0  0  0  0
    0.6650   -1.5519   -0.2103 C   0  0  0  0  0  0  0  0  0  0  0  0
   -1.6215   -0.6120   -0.2423 C   0  0  0  0  0  0  0  0  0  0  0  0
    0.1288   -2.7116    0.2077 C   0  0  0  0  0  0  0  0  0  0  0  0
   -2.0660   -1.8091    0.1778 C   0  0  0  0  0  0  0  0  0  0  0  0
    2.1971    2.7801   -0.9973 O   0  5  0  0  0  0  0  0  0  0  0  0
    1.1363    2.2336   -0.7533 N   0  3  0  0  0  0  0  0  0  0  0  0
   -1.1894   -2.7850    0.5665 N   0  0  0  0  0  0  0  0  0  0  0  0
    0.0705    0.2188   -1.2275 H   0  0  0  0  0  0  0  0  0  0  0  0
   -0.5755   -0.7350    2.3391 H   0  0  0  0  0  0  0  0  0  0  0  0
    1.6278    3.5907    1.5109 H   0  0  0  0  0  0  0  0  0  0  0  0
   -0.0025    0.7363    4.2283 H   0  0  0  0  0  0  0  0  0  0  0  0
    0.3929   -4.7850    0.6385 H   0  0  0  0  0  0  0  0  0  0  0  0
    1.3833   -4.1747   -0.7087 H   0  0  0  0  0  0  0  0  0  0  0  0
    1.8176   -3.7707    0.9695 H   0  0  0  0  0  0  0  0  0  0  0  0
   -3.7220   -3.0927    0.5831 H   0  0  0  0  0  0  0  0  0  0  0  0
   -4.0283   -1.3664    0.8902 H   0  0  0  0  0  0  0  0  0  0  0  0
   -3.9653   -1.9755   -0.7811 H   0  0  0  0  0  0  0  0  0  0  0  0
    1.1013    2.8984    3.8143 H   0  0  0  0  0  0  0  0  0  0  0  0
    4.2826    0.5994   -1.6816 H   0  0  0  0  0  0  0  0  0  0  0  0
    4.5560   -0.7026   -0.4990 H   0  0  0  0  0  0  0  0  0  0  0  0
    4.1117   -1.1021   -2.1757 H   0  0  0  0  0  0  0  0  0  0  0  0
   -2.6442    3.4468   -1.7786 H   0  0  0  0  0  0  0  0  0  0  0  0
   -3.7073    2.1121   -2.2852 H   0  0  0  0  0  0  0  0  0  0  0  0
   -3.7824    2.7251   -0.6158 H   0  0  0  0  0  0  0  0  0  0  0  0
 15 17  1  0  0  0  0
  7 17  1  0  0  0  0
 16 18  1  0  0  0  0
  8 18  1  0  0  0  0
 12 15  2  0  0  0  0
 13 16  2  0  0  0  0
 24 25  1  0  0  0  0
 14 25  2  0  0  0  0
 22 26  1  0  0  0  0
 23 26  1  0  0  0  0
 11 25  1  0  0  0  0
 19 20  1  0  0  0  0
 19 21  1  0  0  0  0
 10 19  1  0  0  0  0
 20 22  2  0  0  0  0
 15 20  1  0  0  0  0
 21 23  2  0  0  0  0
 16 21  1  0  0  0  0
 10 11  2  0  0  0  0
  1 10  1  0  0  0  0
  5 22  1  0  0  0  0
  6 23  1  0  0  0  0
  2 11  1  0  0  0  0
  1  3  2  0  0  0  0
  2  4  2  0  0  0  0
  3  4  1  0  0  0  0
  9 26  1  0  0  0  0
 19 27  1  0  0  0  0
  1 28  1  0  0  0  0
  2 29  1  0  0  0  0
  3 30  1  0  0  0  0
  5 31  1  0  0  0  0
  5 32  1  0  0  0  0
  5 33  1  0  0  0  0
  6 34  1  0  0  0  0
  6 35  1  0  0  0  0
  6 36  1  0  0  0  0
  4 37  1  0  0  0  0
  7 38  1  0  0  0  0
  7 39  1  0  0  0  0
  7 40  1  0  0  0  0
  8 41  1  0  0  0  0
  8 42  1  0  0  0  0
  8 43  1  0  0  0  0
M  CHG  2  24  -1  25   1
M  END
$$$$
