C10H13N3O5S
APtclcactv12211717253D 0   0.00000     0.00000
 
 32 33  0  0  0  0  0  0  0  0999 V2000
    2.8707    2.1521    0.0093 C   0  0  0  0  0  0  0  0  0  0  0  0
    4.1351    1.6528    0.1219 C   0  0  0  0  0  0  0  0  0  0  0  0
   -1.1511   -2.5589   -0.2510 C   0  0  0  0  0  0  0  0  0  0  0  0
    1.9818    0.9793   -0.0996 C   0  0  0  0  0  0  0  0  0  0  0  0
    4.0481    0.2610    0.0864 C   0  0  0  0  0  0  0  0  0  0  0  0
   -4.8516   -0.0519   -0.9626 O   0  0  0  0  0  0  0  0  0  0  0  0
   -5.0261    0.3326    1.4539 O   0  0  0  0  0  0  0  0  0  0  0  0
    6.4204   -0.1829    0.3085 O   0  0  0  0  0  0  0  0  0  0  0  0
   -3.1368   -1.3050    0.6058 C   0  0  0  0  0  0  0  0  0  0  0  0
   -3.0172    1.4706    0.1722 C   0  0  0  0  0  0  0  0  0  0  0  0
   -1.9922    1.1211   -0.9111 C   0  0  0  0  0  0  0  0  0  0  0  0
   -2.1003   -1.3892   -0.5190 C   0  0  0  0  0  0  0  0  0  0  0  0
    0.6110    0.9969   -0.2323 C   0  0  0  0  0  0  0  0  0  0  0  0
   -0.0701   -0.1576   -0.3207 N   0  0  0  0  0  0  0  0  0  0  0  0
    5.0064   -1.9647    0.1367 O   0  5  0  0  0  0  0  0  0  0  0  0
   -1.3351   -0.1425   -0.5730 N   0  0  0  0  0  0  0  0  0  0  0  0
    5.2006   -0.6628    0.1806 N   0  3  0  0  0  0  0  0  0  0  0  0
    2.7738   -0.1171   -0.0443 O   0  0  0  0  0  0  0  0  0  0  0  0
   -4.2239    0.1182    0.3008 S   0  0  0  0  0  0  0  0  0  0  0  0
   -3.7297   -2.2195    0.6252 H   0  0  0  0  0  0  0  0  0  0  0  0
   -2.6283   -1.1776    1.5615 H   0  0  0  0  0  0  0  0  0  0  0  0
   -2.5087    1.5981    1.1279 H   0  0  0  0  0  0  0  0  0  0  0  0
   -3.5311    2.3939   -0.0954 H   0  0  0  0  0  0  0  0  0  0  0  0
   -2.6087   -1.5449   -1.4705 H   0  0  0  0  0  0  0  0  0  0  0  0
   -2.4981    1.0218   -1.8714 H   0  0  0  0  0  0  0  0  0  0  0  0
   -1.2459    1.9131   -0.9741 H   0  0  0  0  0  0  0  0  0  0  0  0
   -1.7207   -3.4874   -0.2115 H   0  0  0  0  0  0  0  0  0  0  0  0
   -0.4135   -2.6189   -1.0513 H   0  0  0  0  0  0  0  0  0  0  0  0
   -0.6428   -2.4037    0.7007 H   0  0  0  0  0  0  0  0  0  0  0  0
    0.0837    1.9388   -0.2653 H   0  0  0  0  0  0  0  0  0  0  0  0
    2.5796    3.1921    0.0054 H   0  0  0  0  0  0  0  0  0  0  0  0
    5.0415    2.2316    0.2206 H   0  0  0  0  0  0  0  0  0  0  0  0
  9 19  1  0  0  0  0
 10 19  1  0  0  0  0
  6 19  2  0  0  0  0
  7 19  2  0  0  0  0
  9 12  1  0  0  0  0
 10 11  1  0  0  0  0
 12 16  1  0  0  0  0
  3 12  1  0  0  0  0
 14 16  1  0  0  0  0
 13 14  2  0  0  0  0
  4 13  1  0  0  0  0
  4 18  1  0  0  0  0
  1  4  2  0  0  0  0
  5 18  1  0  0  0  0
  1  2  1  0  0  0  0
  5 17  1  0  0  0  0
  8 17  2  0  0  0  0
 15 17  1  0  0  0  0
 11 16  1  0  0  0  0
  2  5  2  0  0  0  0
  9 20  1  0  0  0  0
  9 21  1  0  0  0  0
 10 22  1  0  0  0  0
 10 23  1  0  0  0  0
 12 24  1  0  0  0  0
 11 25  1  0  0  0  0
 11 26  1  0  0  0  0
  3 27  1  0  0  0  0
  3 28  1  0  0  0  0
  3 29  1  0  0  0  0
 13 30  1  0  0  0  0
  1 31  1  0  0  0  0
  2 32  1  0  0  0  0
M  CHG  2  15  -1  17   1
M  END
$$$$
