C6H6N4O3S
APtclcactv12211716533D 0   0.00000     0.00000
 
 20 21  0  0  0  0  0  0  0  0999 V2000
    1.5424   -1.4991    0.0004 C   0  0  0  0  0  0  0  0  0  0  0  0
   -4.4757    1.3776   -0.0003 H   0  0  0  0  0  0  0  0  0  0  0  0
   -0.4271   -0.4535    0.0005 C   0  0  0  0  0  0  0  0  0  0  0  0
    2.0273   -0.2562    0.0003 C   0  0  0  0  0  0  0  0  0  0  0  0
   -1.9556    1.9046    0.0001 O   0  0  0  0  0  0  0  0  0  0  0  0
    4.3157   -0.7480   -0.0002 O   0  0  0  0  0  0  0  0  0  0  0  0
   -2.7612   -1.4611   -0.0003 C   0  0  0  0  0  0  0  0  0  0  0  0
   -4.1424   -0.7777   -0.0006 C   0  0  0  0  0  0  0  0  0  0  0  0
   -2.4948    0.8149    0.0001 C   0  0  0  0  0  0  0  0  0  0  0  0
    3.7819    1.2930   -0.0007 O   0  5  0  0  0  0  0  0  0  0  0  0
    0.2243   -1.5741    0.0005 N   0  0  0  0  0  0  0  0  0  0  0  0
    3.4596    0.1184   -0.0002 N   0  3  0  0  0  0  0  0  0  0  0  0
   -1.8123   -0.3377    0.0001 N   0  0  0  0  0  0  0  0  0  0  0  0
   -3.8251    0.6582   -0.0002 N   0  0  0  0  0  0  0  0  0  0  0  0
    0.6655    0.8615    0.0004 S   0  0  0  0  0  0  0  0  0  0  0  0
   -2.6351   -2.0687    0.8958 H   0  0  0  0  0  0  0  0  0  0  0  0
   -2.6347   -2.0684   -0.8965 H   0  0  0  0  0  0  0  0  0  0  0  0
    2.1768   -2.3731   -0.0039 H   0  0  0  0  0  0  0  0  0  0  0  0
   -4.7017   -1.0457   -0.8969 H   0  0  0  0  0  0  0  0  0  0  0  0
   -4.7022   -1.0460    0.8954 H   0  0  0  0  0  0  0  0  0  0  0  0
  3 13  1  0  0  0  0
  3 15  1  0  0  0  0
  3 11  2  0  0  0  0
  9 13  1  0  0  0  0
  7 13  1  0  0  0  0
  4 15  1  0  0  0  0
  1 11  1  0  0  0  0
  9 14  1  0  0  0  0
  5  9  2  0  0  0  0
  7  8  1  0  0  0  0
  4 12  1  0  0  0  0
  6 12  2  0  0  0  0
 10 12  1  0  0  0  0
  1  4  2  0  0  0  0
  8 14  1  0  0  0  0
  7 16  1  0  0  0  0
  7 17  1  0  0  0  0
  1 18  1  0  0  0  0
  2 14  1  0  0  0  0
  8 19  1  0  0  0  0
  8 20  1  0  0  0  0
M  CHG  2  10  -1  12   1
M  END
$$$$
