C3H5N3O9
APtclcactv12101715363D 0   0.00000     0.00000
 
 20 19  0  0  0  0  0  0  0  0999 V2000
    0.9728   -0.9966    0.0953 C   0  0  0  0  0  0  0  0  0  0  0  0
   -0.1999   -0.0581   -0.1962 C   0  0  0  0  0  0  0  0  0  0  0  0
   -1.5168   -0.7855    0.0824 C   0  0  0  0  0  0  0  0  0  0  0  0
   -2.6120    0.0490   -0.2997 O   0  0  0  0  0  0  0  0  0  0  0  0
   -3.8838   -0.5341   -0.0816 N   0  3  0  0  0  0  0  0  0  0  0  0
   -3.9676   -1.6525    0.3934 O   0  0  0  0  0  0  0  0  0  0  0  0
   -4.8940    0.0828   -0.3688 O   0  5  0  0  0  0  0  0  0  0  0  0
   -0.1064    1.0956    0.6418 O   0  0  0  0  0  0  0  0  0  0  0  0
    0.7275    2.1167    0.1251 N   0  3  0  0  0  0  0  0  0  0  0  0
    1.2872    1.9624   -0.9456 O   0  0  0  0  0  0  0  0  0  0  0  0
    0.8850    3.1494    0.7514 O   0  5  0  0  0  0  0  0  0  0  0  0
    2.1968   -0.3587   -0.2747 O   0  0  0  0  0  0  0  0  0  0  0  0
    3.3499   -1.1474   -0.0439 N   0  3  0  0  0  0  0  0  0  0  0  0
    3.2394   -2.2636    0.4309 O   0  0  0  0  0  0  0  0  0  0  0  0
    4.4524   -0.7096   -0.3202 O   0  5  0  0  0  0  0  0  0  0  0  0
    0.9933   -1.2328    1.1593 H   0  0  0  0  0  0  0  0  0  0  0  0
    0.8540   -1.9156   -0.4786 H   0  0  0  0  0  0  0  0  0  0  0  0
   -0.1684    0.2487   -1.2417 H   0  0  0  0  0  0  0  0  0  0  0  0
   -1.5485   -1.7119   -0.4911 H   0  0  0  0  0  0  0  0  0  0  0  0
   -1.5877   -1.0139    1.1458 H   0  0  0  0  0  0  0  0  0  0  0  0
  1  2  1  0  0  0  0
  2  3  1  0  0  0  0
  3  4  1  0  0  0  0
  4  5  1  0  0  0  0
  5  6  2  0  0  0  0
  5  7  1  0  0  0  0
  2  8  1  0  0  0  0
  8  9  1  0  0  0  0
  9 10  2  0  0  0  0
  9 11  1  0  0  0  0
  1 12  1  0  0  0  0
 12 13  1  0  0  0  0
 13 14  2  0  0  0  0
 13 15  1  0  0  0  0
  1 16  1  0  0  0  0
  1 17  1  0  0  0  0
  2 18  1  0  0  0  0
  3 19  1  0  0  0  0
  3 20  1  0  0  0  0
M  CHG  6   5   1   7  -1   9   1  11  -1  13   1  15  -1
M  END
$$$$
