C2H5NO2
APtclcactv12101715343D 0   0.00000     0.00000
 
 10  9  0  0  0  0  0  0  0  0999 V2000
    0.5087    0.0069   -0.0651 N   0  3  0  0  0  0  0  0  0  0  0  0
    0.6056   -1.2068   -0.0966 O   0  0  0  0  0  0  0  0  0  0  0  0
    1.4720    0.6871    0.2398 O   0  5  0  0  0  0  0  0  0  0  0  0
   -0.7649    0.6490   -0.3998 C   0  0  0  0  0  0  0  0  0  0  0  0
   -1.9080   -0.0909    0.2979 C   0  0  0  0  0  0  0  0  0  0  0  0
   -0.7471    1.6868   -0.0669 H   0  0  0  0  0  0  0  0  0  0  0  0
   -0.9158    0.6161   -1.4788 H   0  0  0  0  0  0  0  0  0  0  0  0
   -1.9257   -1.1286   -0.0350 H   0  0  0  0  0  0  0  0  0  0  0  0
   -1.7570   -0.0580    1.3769 H   0  0  0  0  0  0  0  0  0  0  0  0
   -2.8555    0.3869    0.0488 H   0  0  0  0  0  0  0  0  0  0  0  0
  1  2  2  0  0  0  0
  1  3  1  0  0  0  0
  1  4  1  0  0  0  0
  4  5  1  0  0  0  0
  4  6  1  0  0  0  0
  4  7  1  0  0  0  0
  5  8  1  0  0  0  0
  5  9  1  0  0  0  0
  5 10  1  0  0  0  0
M  CHG  2   1   1   3  -1
M  END
$$$$
