CH4N4O2
APtclcactv12101715313D 0   0.00000     0.00000
 
 11 10  0  0  0  0  0  0  0  0999 V2000
    1.2051    0.0895    0.0017 N   0  3  0  0  0  0  0  0  0  0  0  0
    1.2349   -1.1281    0.0008 O   0  0  0  0  0  0  0  0  0  0  0  0
    2.2446    0.7242   -0.0022 O   0  5  0  0  0  0  0  0  0  0  0  0
   -0.0250    0.7601    0.0014 N   0  0  0  0  0  0  0  0  0  0  0  0
   -1.1985    0.0437   -0.0000 C   0  0  0  0  0  0  0  0  0  0  0  0
   -1.1665   -1.2594   -0.0010 N   0  0  0  0  0  0  0  0  0  0  0  0
   -2.4056    0.7017   -0.0003 N   0  0  0  0  0  0  0  0  0  0  0  0
   -0.0488    1.7298    0.0021 H   0  0  0  0  0  0  0  0  0  0  0  0
   -1.9944   -1.7648   -0.0020 H   0  0  0  0  0  0  0  0  0  0  0  0
   -2.4294    1.6714    0.0004 H   0  0  0  0  0  0  0  0  0  0  0  0
   -3.2335    0.1962   -0.0013 H   0  0  0  0  0  0  0  0  0  0  0  0
  1  2  2  0  0  0  0
  1  3  1  0  0  0  0
  1  4  1  0  0  0  0
  4  5  1  0  0  0  0
  5  6  2  0  0  0  0
  5  7  1  0  0  0  0
  4  8  1  0  0  0  0
  6  9  1  0  0  0  0
  7 10  1  0  0  0  0
  7 11  1  0  0  0  0
M  CHG  2   1   1   3  -1
M  END
$$$$
