C3H7N3O2
APtclcactv12211716353D 0   0.00000     0.00000
 
 15 14  0  0  0  0  0  0  0  0999 V2000
   -2.7805   -0.1866   -0.3574 N   0  0  0  0  0  0  0  0  0  0  0  0
   -3.6516   -0.1211    0.4913 O   0  0  0  0  0  0  0  0  0  0  0  0
   -1.5709    0.6302   -0.2302 C   0  0  0  0  0  0  0  0  0  0  0  0
   -0.3443   -0.2819   -0.1633 C   0  0  0  0  0  0  0  0  0  0  0  0
    0.8652    0.5349   -0.0361 N   0  0  0  0  0  0  0  0  0  0  0  0
    2.0733   -0.0575    0.0408 C   0  0  0  0  0  0  0  0  0  0  0  0
    2.1594   -1.2698    0.0046 O   0  0  0  0  0  0  0  0  0  0  0  0
    3.1861    0.6939    0.1578 N   0  0  0  0  0  0  0  0  0  0  0  0
   -1.4860    1.2905   -1.0933 H   0  0  0  0  0  0  0  0  0  0  0  0
   -1.6298    1.2273    0.6797 H   0  0  0  0  0  0  0  0  0  0  0  0
   -0.4293   -0.9422    0.6998 H   0  0  0  0  0  0  0  0  0  0  0  0
   -0.2855   -0.8790   -1.0732 H   0  0  0  0  0  0  0  0  0  0  0  0
    0.7965    1.5020   -0.0071 H   0  0  0  0  0  0  0  0  0  0  0  0
    3.1174    1.6610    0.1868 H   0  0  0  0  0  0  0  0  0  0  0  0
    4.0556    0.2675    0.2132 H   0  0  0  0  0  0  0  0  0  0  0  0
  1  2  2  0  0  0  0
  1  3  1  0  0  0  0
  3  4  1  0  0  0  0
  4  5  1  0  0  0  0
  5  6  1  0  0  0  0
  6  7  2  0  0  0  0
  6  8  1  0  0  0  0
  3  9  1  0  0  0  0
  3 10  1  0  0  0  0
  4 11  1  0  0  0  0
  4 12  1  0  0  0  0
  5 13  1  0  0  0  0
  8 14  1  0  0  0  0
  8 15  1  0  0  0  0
M  END
$$$$
