CH5N5O2
APtclcactv12101715323D 0   0.00000     0.00000
 
 13 12  0  0  0  0  0  0  0  0999 V2000
    1.7445   -0.0432    0.0227 N   0  3  0  0  0  0  0  0  0  0  0  0
    1.7910   -1.1425    0.5452 O   0  0  0  0  0  0  0  0  0  0  0  0
    2.7375    0.6617   -0.0023 O   0  5  0  0  0  0  0  0  0  0  0  0
    0.5504    0.4080   -0.5546 N   0  0  0  0  0  0  0  0  0  0  0  0
   -0.5902   -0.4052   -0.5310 N   0  0  0  0  0  0  0  0  0  0  0  0
   -1.7642    0.0727    0.0015 C   0  0  0  0  0  0  0  0  0  0  0  0
   -1.8160    1.2823    0.4842 N   0  0  0  0  0  0  0  0  0  0  0  0
   -2.8835   -0.7253    0.0247 N   0  0  0  0  0  0  0  0  0  0  0  0
    0.5134    1.2834   -0.9708 H   0  0  0  0  0  0  0  0  0  0  0  0
   -0.5516   -1.3054   -0.8902 H   0  0  0  0  0  0  0  0  0  0  0  0
   -2.6443    1.6195    0.8599 H   0  0  0  0  0  0  0  0  0  0  0  0
   -2.8449   -1.6254   -0.3345 H   0  0  0  0  0  0  0  0  0  0  0  0
   -3.7118   -0.3881    0.4004 H   0  0  0  0  0  0  0  0  0  0  0  0
  1  2  2  0  0  0  0
  1  3  1  0  0  0  0
  1  4  1  0  0  0  0
  4  5  1  0  0  0  0
  5  6  1  0  0  0  0
  6  7  2  0  0  0  0
  6  8  1  0  0  0  0
  4  9  1  0  0  0  0
  5 10  1  0  0  0  0
  7 11  1  0  0  0  0
  8 12  1  0  0  0  0
  8 13  1  0  0  0  0
M  CHG  2   1   1   3  -1
M  END
$$$$
