CH3NO2
APtclcactv12101715313D 0   0.00000     0.00000
 
  7  6  0  0  0  0  0  0  0  0999 V2000
    0.0596    0.0000    0.0014 N   0  3  0  0  0  0  0  0  0  0  0  0
    0.6686   -1.0548   -0.0004 O   0  0  0  0  0  0  0  0  0  0  0  0
    0.6686    1.0548   -0.0004 O   0  5  0  0  0  0  0  0  0  0  0  0
   -1.4054   -0.0000   -0.0003 C   0  0  0  0  0  0  0  0  0  0  0  0
   -1.7700   -0.0025    1.0269 H   0  0  0  0  0  0  0  0  0  0  0  0
   -1.7682    0.8912   -0.5124 H   0  0  0  0  0  0  0  0  0  0  0  0
   -1.7682   -0.8887   -0.5167 H   0  0  0  0  0  0  0  0  0  0  0  0
  1  2  2  0  0  0  0
  1  3  1  0  0  0  0
  1  4  1  0  0  0  0
  4  5  1  0  0  0  0
  4  6  1  0  0  0  0
  4  7  1  0  0  0  0
M  CHG  2   1   1   3  -1
M  END
$$$$
