C13H19N3O6S
APtclcactv12091702533D 0   0.00000     0.00000
 
 42 42  0  0  0  0  0  0  0  0999 V2000
    1.3830   -1.1991    0.0002 C   0  0  0  0  0  0  0  0  0  0  0  0
    1.2899    1.1938    0.1038 C   0  0  0  0  0  0  0  0  0  0  0  0
   -2.7118    0.4142    1.2018 C   0  0  0  0  0  0  0  0  0  0  0  0
   -2.6583    0.5634   -1.2143 C   0  0  0  0  0  0  0  0  0  0  0  0
   -2.6246   -0.6324    2.3144 C   0  0  0  0  0  0  0  0  0  0  0  0
   -2.5505   -0.3514   -2.4359 C   0  0  0  0  0  0  0  0  0  0  0  0
    4.2775    0.1843   -1.6326 C   0  0  0  0  0  0  0  0  0  0  0  0
   -3.3362   -0.1092    3.5637 C   0  0  0  0  0  0  0  0  0  0  0  0
   -3.2086    0.3256   -3.6398 C   0  0  0  0  0  0  0  0  0  0  0  0
   -0.7386   -0.0812    0.0017 C   0  0  0  0  0  0  0  0  0  0  0  0
    0.0035   -1.2549   -0.0332 C   0  0  0  0  0  0  0  0  0  0  0  0
   -0.0898    1.1452    0.0706 C   0  0  0  0  0  0  0  0  0  0  0  0
    2.0256    0.0234    0.0684 C   0  0  0  0  0  0  0  0  0  0  0  0
    4.1704   -1.1582    0.6707 O   0  0  0  0  0  0  0  0  0  0  0  0
    4.0743    1.3117    0.7771 O   0  0  0  0  0  0  0  0  0  0  0  0
   -1.9002   -2.6124   -0.1366 O   0  0  0  0  0  0  0  0  0  0  0  0
   -2.0928    2.3529    0.1548 O   0  0  0  0  0  0  0  0  0  0  0  0
   -0.0322   -3.5928   -0.1373 O   0  5  0  0  0  0  0  0  0  0  0  0
   -0.3076    3.4753    0.0947 O   0  5  0  0  0  0  0  0  0  0  0  0
   -2.1339   -0.1340   -0.0325 N   0  0  0  0  0  0  0  0  0  0  0  0
    3.7859    0.0901    0.1110 S   0  0  0  0  0  0  0  0  0  0  0  0
   -0.6835   -2.5640   -0.1067 N   0  3  0  0  0  0  0  0  0  0  0  0
   -0.8766    2.3985    0.1090 N   0  3  0  0  0  0  0  0  0  0  0  0
    1.9605   -2.1115   -0.0224 H   0  0  0  0  0  0  0  0  0  0  0  0
    1.7950    2.1470    0.1570 H   0  0  0  0  0  0  0  0  0  0  0  0
   -3.7560    0.6751    1.0294 H   0  0  0  0  0  0  0  0  0  0  0  0
   -2.1586    1.3056    1.4974 H   0  0  0  0  0  0  0  0  0  0  0  0
   -2.0794    1.4706   -1.3875 H   0  0  0  0  0  0  0  0  0  0  0  0
   -3.7032    0.8254   -1.0477 H   0  0  0  0  0  0  0  0  0  0  0  0
    3.9164   -0.6985   -2.1602 H   0  0  0  0  0  0  0  0  0  0  0  0
    3.8473    1.0785   -2.0836 H   0  0  0  0  0  0  0  0  0  0  0  0
    5.3644    0.2296   -1.7017 H   0  0  0  0  0  0  0  0  0  0  0  0
   -3.1021   -1.5548    1.9838 H   0  0  0  0  0  0  0  0  0  0  0  0
   -1.5781   -0.8284    2.5476 H   0  0  0  0  0  0  0  0  0  0  0  0
   -1.5000   -0.5419   -2.6556 H   0  0  0  0  0  0  0  0  0  0  0  0
   -3.0553   -1.2951   -2.2289 H   0  0  0  0  0  0  0  0  0  0  0  0
   -3.2741   -0.8548    4.3563 H   0  0  0  0  0  0  0  0  0  0  0  0
   -2.8587    0.8132    3.8943 H   0  0  0  0  0  0  0  0  0  0  0  0
   -4.3828    0.0868    3.3305 H   0  0  0  0  0  0  0  0  0  0  0  0
   -3.1318   -0.3261   -4.5101 H   0  0  0  0  0  0  0  0  0  0  0  0
   -4.2591    0.5161   -3.4201 H   0  0  0  0  0  0  0  0  0  0  0  0
   -2.7038    1.2693   -3.8468 H   0  0  0  0  0  0  0  0  0  0  0  0
 14 21  2  0  0  0  0
 15 21  2  0  0  0  0
 13 21  1  0  0  0  0
  7 21  1  0  0  0  0
 18 22  1  0  0  0  0
 16 22  2  0  0  0  0
 19 23  1  0  0  0  0
 17 23  2  0  0  0  0
 10 20  1  0  0  0  0
  3 20  1  0  0  0  0
  4 20  1  0  0  0  0
 11 22  1  0  0  0  0
 12 23  1  0  0  0  0
 10 11  2  0  0  0  0
 10 12  1  0  0  0  0
  1 11  1  0  0  0  0
  2 12  2  0  0  0  0
  1 13  2  0  0  0  0
  2 13  1  0  0  0  0
  3  5  1  0  0  0  0
  4  6  1  0  0  0  0
  5  8  1  0  0  0  0
  6  9  1  0  0  0  0
  1 24  1  0  0  0  0
  2 25  1  0  0  0  0
  3 26  1  0  0  0  0
  3 27  1  0  0  0  0
  4 28  1  0  0  0  0
  4 29  1  0  0  0  0
  7 30  1  0  0  0  0
  7 31  1  0  0  0  0
  7 32  1  0  0  0  0
  5 33  1  0  0  0  0
  5 34  1  0  0  0  0
  6 35  1  0  0  0  0
  6 36  1  0  0  0  0
  8 37  1  0  0  0  0
  8 38  1  0  0  0  0
  8 39  1  0  0  0  0
  9 40  1  0  0  0  0
  9 41  1  0  0  0  0
  9 42  1  0  0  0  0
M  CHG  4  18  -1  19  -1  22   1  23   1
M  END
$$$$
