C16H25NO2
APtclcactv12211717143D 0   0.00000     0.00000
 
 44 44  0  0  0  0  0  0  0  0999 V2000
    7.6393   -1.4860    0.0014 N   0  0  0  0  0  0  0  0  0  0  0  0
    6.3882   -0.8802    0.0009 C   0  0  0  0  0  0  0  0  0  0  0  0
    6.2889    0.5087    0.0001 C   0  0  0  0  0  0  0  0  0  0  0  0
    5.0565    1.1094    0.0001 C   0  0  0  0  0  0  0  0  0  0  0  0
    3.8982    0.3256    0.0005 C   0  0  0  0  0  0  0  0  0  0  0  0
    2.5717    0.9679    0.0000 C   0  0  0  0  0  0  0  0  0  0  0  0
    2.4835    2.1799   -0.0007 O   0  0  0  0  0  0  0  0  0  0  0  0
    1.4566    0.2112    0.0004 O   0  0  0  0  0  0  0  0  0  0  0  0
    0.1847    0.9115   -0.0001 C   0  0  0  0  0  0  0  0  0  0  0  0
   -0.9578   -0.1061    0.0004 C   0  0  0  0  0  0  0  0  0  0  0  0
   -2.2981    0.6319   -0.0002 C   0  0  0  0  0  0  0  0  0  0  0  0
   -3.4406   -0.3858    0.0004 C   0  0  0  0  0  0  0  0  0  0  0  0
   -4.7808    0.3522   -0.0002 C   0  0  0  0  0  0  0  0  0  0  0  0
   -5.9234   -0.6654    0.0003 C   0  0  0  0  0  0  0  0  0  0  0  0
   -7.2636    0.0726   -0.0002 C   0  0  0  0  0  0  0  0  0  0  0  0
   -8.4061   -0.9451    0.0003 C   0  0  0  0  0  0  0  0  0  0  0  0
   -9.7464   -0.2071   -0.0002 C   0  0  0  0  0  0  0  0  0  0  0  0
    4.0015   -1.0692    0.0008 C   0  0  0  0  0  0  0  0  0  0  0  0
    5.2371   -1.6635   -0.0045 C   0  0  0  0  0  0  0  0  0  0  0  0
    8.4419   -0.9413    0.0011 H   0  0  0  0  0  0  0  0  0  0  0  0
    7.7097   -2.4534    0.0060 H   0  0  0  0  0  0  0  0  0  0  0  0
    7.1837    1.1134   -0.0002 H   0  0  0  0  0  0  0  0  0  0  0  0
    4.9802    2.1867    0.0002 H   0  0  0  0  0  0  0  0  0  0  0  0
    0.1142    1.5374    0.8895 H   0  0  0  0  0  0  0  0  0  0  0  0
    0.1143    1.5363   -0.8905 H   0  0  0  0  0  0  0  0  0  0  0  0
   -0.8873   -0.7320   -0.8892 H   0  0  0  0  0  0  0  0  0  0  0  0
   -0.8874   -0.7310    0.8907 H   0  0  0  0  0  0  0  0  0  0  0  0
   -2.3686    1.2577    0.8895 H   0  0  0  0  0  0  0  0  0  0  0  0
   -2.3684    1.2567   -0.8905 H   0  0  0  0  0  0  0  0  0  0  0  0
   -3.3701   -1.0116   -0.8892 H   0  0  0  0  0  0  0  0  0  0  0  0
   -3.3702   -1.0106    0.8907 H   0  0  0  0  0  0  0  0  0  0  0  0
   -4.8513    0.9781    0.8894 H   0  0  0  0  0  0  0  0  0  0  0  0
   -4.8512    0.9770   -0.8905 H   0  0  0  0  0  0  0  0  0  0  0  0
   -5.8529   -1.2913   -0.8893 H   0  0  0  0  0  0  0  0  0  0  0  0
   -5.8530   -1.2902    0.8907 H   0  0  0  0  0  0  0  0  0  0  0  0
   -7.3341    0.6984    0.8894 H   0  0  0  0  0  0  0  0  0  0  0  0
   -7.3340    0.6974   -0.8905 H   0  0  0  0  0  0  0  0  0  0  0  0
   -8.3356   -1.5709   -0.8893 H   0  0  0  0  0  0  0  0  0  0  0  0
   -8.3358   -1.5699    0.8907 H   0  0  0  0  0  0  0  0  0  0  0  0
  -10.5604   -0.9321    0.0002 H   0  0  0  0  0  0  0  0  0  0  0  0
   -9.8169    0.4188    0.8894 H   0  0  0  0  0  0  0  0  0  0  0  0
   -9.8168    0.4177   -0.8906 H   0  0  0  0  0  0  0  0  0  0  0  0
    3.1090   -1.6774    0.0014 H   0  0  0  0  0  0  0  0  0  0  0  0
    5.3176   -2.7405   -0.0045 H   0  0  0  0  0  0  0  0  0  0  0  0
  1  2  1  0  0  0  0
  2  3  2  0  0  0  0
  3  4  1  0  0  0  0
  4  5  2  0  0  0  0
  5  6  1  0  0  0  0
  6  7  2  0  0  0  0
  6  8  1  0  0  0  0
  8  9  1  0  0  0  0
  9 10  1  0  0  0  0
 10 11  1  0  0  0  0
 11 12  1  0  0  0  0
 12 13  1  0  0  0  0
 13 14  1  0  0  0  0
 14 15  1  0  0  0  0
 15 16  1  0  0  0  0
 16 17  1  0  0  0  0
  5 18  1  0  0  0  0
 18 19  2  0  0  0  0
  2 19  1  0  0  0  0
  1 20  1  0  0  0  0
  1 21  1  0  0  0  0
  3 22  1  0  0  0  0
  4 23  1  0  0  0  0
  9 24  1  0  0  0  0
  9 25  1  0  0  0  0
 10 26  1  0  0  0  0
 10 27  1  0  0  0  0
 11 28  1  0  0  0  0
 11 29  1  0  0  0  0
 12 30  1  0  0  0  0
 12 31  1  0  0  0  0
 13 32  1  0  0  0  0
 13 33  1  0  0  0  0
 14 34  1  0  0  0  0
 14 35  1  0  0  0  0
 15 36  1  0  0  0  0
 15 37  1  0  0  0  0
 16 38  1  0  0  0  0
 16 39  1  0  0  0  0
 17 40  1  0  0  0  0
 17 41  1  0  0  0  0
 17 42  1  0  0  0  0
 18 43  1  0  0  0  0
 19 44  1  0  0  0  0
M  END
$$$$
