C18H26O2
APtclcactv12211717183D 0   0.00000     0.00000
 
 46 49  0  0  1  0  0  0  0  0999 V2000
    1.8077   -0.7287   -0.5201 C   0  0  1  0  0  0  0  0  0  0  0  0
    0.4799   -0.7775    0.2140 C   0  0  1  0  0  0  0  0  0  0  0  0
    2.5266    0.5755   -0.0823 C   0  0  2  0  0  0  0  0  0  0  0  0
   -0.3601    0.4145   -0.2675 C   0  0  1  0  0  0  0  0  0  0  0  0
    3.9559    0.3700   -0.5736 C   0  0  2  0  0  0  0  0  0  0  0  0
   -1.6906    0.4388    0.4951 C   0  0  1  0  0  0  0  0  0  0  0  0
    2.5100    0.6900    1.4433 C   0  0  0  0  0  0  0  0  0  0  0  0
    5.8044    0.9268    0.0383 H   0  0  0  0  0  0  0  0  0  0  0  0
   -5.5158    0.0723   -0.8308 O   0  0  0  0  0  0  0  0  0  0  0  0
    2.8308   -1.7970   -0.1181 C   0  0  0  0  0  0  0  0  0  0  0  0
   -0.2526   -2.0774   -0.1307 C   0  0  0  0  0  0  0  0  0  0  0  0
    1.7617    1.7341   -0.6930 C   0  0  0  0  0  0  0  0  0  0  0  0
    4.1823   -1.1622   -0.5455 C   0  0  0  0  0  0  0  0  0  0  0  0
    0.3636    1.7407   -0.0548 C   0  0  0  0  0  0  0  0  0  0  0  0
   -1.5597   -2.1455    0.6621 C   0  0  0  0  0  0  0  0  0  0  0  0
   -2.5288    1.6054    0.0036 C   0  0  0  0  0  0  0  0  0  0  0  0
   -3.9976    1.4498    0.3959 C   0  0  0  0  0  0  0  0  0  0  0  0
    4.8787    1.0230    0.3006 O   0  0  0  0  0  0  0  0  0  0  0  0
   -4.4873    0.1403   -0.1909 C   0  0  0  0  0  0  0  0  0  0  0  0
   -3.6521   -1.0402    0.0562 C   0  0  0  0  0  0  0  0  0  0  0  0
   -2.3676   -0.8923    0.3779 C   0  0  0  0  0  0  0  0  0  0  0  0
    1.6448   -0.7304   -1.5979 H   0  0  0  0  0  0  0  0  0  0  0  0
    0.6457   -0.7064    1.2890 H   0  0  0  0  0  0  0  0  0  0  0  0
   -0.5637    0.2980   -1.3320 H   0  0  0  0  0  0  0  0  0  0  0  0
   -1.4714    0.6147    1.5482 H   0  0  0  0  0  0  0  0  0  0  0  0
    2.8080   -1.9673    0.9582 H   0  0  0  0  0  0  0  0  0  0  0  0
    2.6523   -2.7255   -0.6605 H   0  0  0  0  0  0  0  0  0  0  0  0
   -0.4728   -2.0991   -1.1980 H   0  0  0  0  0  0  0  0  0  0  0  0
    0.3757   -2.9293    0.1294 H   0  0  0  0  0  0  0  0  0  0  0  0
    2.2732    2.6719   -0.4766 H   0  0  0  0  0  0  0  0  0  0  0  0
    1.6772    1.5962   -1.7709 H   0  0  0  0  0  0  0  0  0  0  0  0
    4.0647    0.7507   -1.5892 H   0  0  0  0  0  0  0  0  0  0  0  0
    3.0237   -0.1677    1.8776 H   0  0  0  0  0  0  0  0  0  0  0  0
    3.0161    1.6072    1.7443 H   0  0  0  0  0  0  0  0  0  0  0  0
    1.4785    0.7119    1.7948 H   0  0  0  0  0  0  0  0  0  0  0  0
    4.4654   -1.5167   -1.5365 H   0  0  0  0  0  0  0  0  0  0  0  0
    4.9585   -1.4124    0.1778 H   0  0  0  0  0  0  0  0  0  0  0  0
   -0.2261    2.5427   -0.4989 H   0  0  0  0  0  0  0  0  0  0  0  0
    0.4621    1.9243    1.0151 H   0  0  0  0  0  0  0  0  0  0  0  0
   -2.1277   -3.0239    0.3558 H   0  0  0  0  0  0  0  0  0  0  0  0
   -1.3383   -2.2039    1.7278 H   0  0  0  0  0  0  0  0  0  0  0  0
   -2.1413    2.5284    0.4350 H   0  0  0  0  0  0  0  0  0  0  0  0
   -2.4550    1.6637   -1.0824 H   0  0  0  0  0  0  0  0  0  0  0  0
   -4.0786   -2.0293   -0.0223 H   0  0  0  0  0  0  0  0  0  0  0  0
   -4.0906    1.4270    1.4817 H   0  0  0  0  0  0  0  0  0  0  0  0
   -4.5791    2.2779   -0.0094 H   0  0  0  0  0  0  0  0  0  0  0  0
  1  2  1  0  0  0  0
  1  3  1  0  0  0  0
  1 10  1  0  0  0  0
  2  4  1  0  0  0  0
  2 11  1  0  0  0  0
  3 12  1  0  0  0  0
  3  5  1  0  0  0  0
  3  7  1  0  0  0  0
 10 13  1  0  0  0  0
  4  6  1  0  0  0  0
  4 14  1  0  0  0  0
 11 15  1  0  0  0  0
  5 18  1  0  0  0  0
  6 21  1  0  0  0  0
  6 16  1  0  0  0  0
 20 21  2  0  0  0  0
 16 17  1  0  0  0  0
 19 20  1  0  0  0  0
  9 19  2  0  0  0  0
 12 14  1  0  0  0  0
  5 13  1  0  0  0  0
 15 21  1  0  0  0  0
 17 19  1  0  0  0  0
  1 22  1  0  0  0  0
  2 23  1  0  0  0  0
  4 24  1  0  0  0  0
  6 25  1  0  0  0  0
 10 26  1  0  0  0  0
 10 27  1  0  0  0  0
 11 28  1  0  0  0  0
 11 29  1  0  0  0  0
 12 30  1  0  0  0  0
 12 31  1  0  0  0  0
  5 32  1  0  0  0  0
  7 33  1  0  0  0  0
  7 34  1  0  0  0  0
  7 35  1  0  0  0  0
 13 36  1  0  0  0  0
 13 37  1  0  0  0  0
 14 38  1  0  0  0  0
 14 39  1  0  0  0  0
 15 40  1  0  0  0  0
 15 41  1  0  0  0  0
  8 18  1  0  0  0  0
 16 42  1  0  0  0  0
 16 43  1  0  0  0  0
 20 44  1  0  0  0  0
 17 45  1  0  0  0  0
 17 46  1  0  0  0  0
M  END
$$$$
