C17H12ClFN2O
APtclcactv12211717363D 0   0.00000     0.00000
 
 34 36  0  0  0  0  0  0  0  0999 V2000
    1.7923    0.9278   -1.2223 C   0  0  0  0  0  0  0  0  0  0  0  0
   -1.9637   -0.6085    1.1590 C   0  0  0  0  0  0  0  0  0  0  0  0
   -1.3018   -0.5159   -1.1410 C   0  0  0  0  0  0  0  0  0  0  0  0
    1.3689   -1.8478   -0.8806 C   0  0  0  0  0  0  0  0  0  0  0  0
    2.1163   -1.7604    1.3784 C   0  0  0  0  0  0  0  0  0  0  0  0
    0.9190    3.4760   -0.5963 C   0  0  0  0  0  0  0  0  0  0  0  0
    2.2404    2.0120   -1.9540 C   0  0  0  0  0  0  0  0  0  0  0  0
   -3.2543   -0.9214    0.7763 C   0  0  0  0  0  0  0  0  0  0  0  0
   -2.5916   -0.8291   -1.5260 C   0  0  0  0  0  0  0  0  0  0  0  0
    1.8039    3.2856   -1.6411 C   0  0  0  0  0  0  0  0  0  0  0  0
    2.9157   -3.3448   -0.0796 C   0  0  0  0  0  0  0  0  0  0  0  0
    0.1337   -0.4575    2.5857 H   0  0  0  0  0  0  0  0  0  0  0  0
    0.9077    1.1169   -0.1776 C   0  0  0  0  0  0  0  0  0  0  0  0
   -0.9879   -0.4061    0.2009 C   0  0  0  0  0  0  0  0  0  0  0  0
    1.3187   -1.2474    0.3676 C   0  0  0  0  0  0  0  0  0  0  0  0
    0.4703    2.3917    0.1361 C   0  0  0  0  0  0  0  0  0  0  0  0
   -3.5698   -1.0321   -0.5674 C   0  0  0  0  0  0  0  0  0  0  0  0
    0.4366    0.2590    2.0112 O   0  0  0  0  0  0  0  0  0  0  0  0
   -0.6405    2.6301    1.4487 Cl  0  0  0  0  0  0  0  0  0  0  0  0
   -4.8310   -1.3383   -0.9426 F   0  0  0  0  0  0  0  0  0  0  0  0
    2.1712   -2.8840   -1.0647 N   0  0  0  0  0  0  0  0  0  0  0  0
    2.8940   -2.7994    1.1200 N   0  0  0  0  0  0  0  0  0  0  0  0
    0.4190   -0.0650    0.6195 C   0  0  0  0  0  0  0  0  0  0  0  0
    2.1303   -0.0676   -1.4700 H   0  0  0  0  0  0  0  0  0  0  0  0
   -1.7185   -0.5178    2.2068 H   0  0  0  0  0  0  0  0  0  0  0  0
   -0.5388   -0.3572   -1.8886 H   0  0  0  0  0  0  0  0  0  0  0  0
    0.7581   -1.4778   -1.6908 H   0  0  0  0  0  0  0  0  0  0  0  0
    2.1035   -1.3179    2.3635 H   0  0  0  0  0  0  0  0  0  0  0  0
    0.5780    4.4712   -0.3519 H   0  0  0  0  0  0  0  0  0  0  0  0
    2.9320    1.8637   -2.7701 H   0  0  0  0  0  0  0  0  0  0  0  0
   -4.0164   -1.0798    1.5249 H   0  0  0  0  0  0  0  0  0  0  0  0
   -2.8366   -0.9148   -2.5744 H   0  0  0  0  0  0  0  0  0  0  0  0
    2.1540    4.1321   -2.2132 H   0  0  0  0  0  0  0  0  0  0  0  0
    3.5607   -4.1920   -0.2602 H   0  0  0  0  0  0  0  0  0  0  0  0
 13 23  1  0  0  0  0
 14 23  1  0  0  0  0
 15 23  1  0  0  0  0
 18 23  1  0  0  0  0
 13 16  1  0  0  0  0
  1 13  2  0  0  0  0
  2 14  2  0  0  0  0
  3 14  1  0  0  0  0
  4 15  2  0  0  0  0
  5 15  1  0  0  0  0
  6 16  2  0  0  0  0
 16 19  1  0  0  0  0
  1  7  1  0  0  0  0
  2  8  1  0  0  0  0
  3  9  2  0  0  0  0
  4 21  1  0  0  0  0
  5 22  2  0  0  0  0
  6 10  1  0  0  0  0
  8 17  2  0  0  0  0
 11 21  2  0  0  0  0
 17 20  1  0  0  0  0
  7 10  2  0  0  0  0
  9 17  1  0  0  0  0
 11 22  1  0  0  0  0
 12 18  1  0  0  0  0
  1 24  1  0  0  0  0
  2 25  1  0  0  0  0
  3 26  1  0  0  0  0
  4 27  1  0  0  0  0
  5 28  1  0  0  0  0
  6 29  1  0  0  0  0
  7 30  1  0  0  0  0
  8 31  1  0  0  0  0
  9 32  1  0  0  0  0
 10 33  1  0  0  0  0
 11 34  1  0  0  0  0
M  END
$$$$
