C14H9Cl5
APtclcactv12141705063D 0   0.00000     0.00000
 
 28 29  0  0  0  0  0  0  0  0999 V2000
   -1.0057    1.1975    1.4951 C   0  0  0  0  0  0  0  0  0  0  0  0
    1.5739    0.0199    0.8317 C   0  0  0  0  0  0  0  0  0  0  0  0
    1.6933    0.3578   -1.5361 C   0  0  0  0  0  0  0  0  0  0  0  0
   -2.9828    2.5788    0.1418 C   0  0  0  0  0  0  0  0  0  0  0  0
    2.9291    0.2705    0.9364 C   0  0  0  0  0  0  0  0  0  0  0  0
    3.0486    0.6086   -1.4326 C   0  0  0  0  0  0  0  0  0  0  0  0
   -1.7098    2.2007    2.1342 C   0  0  0  0  0  0  0  0  0  0  0  0
   -2.6983    2.8911    1.4576 C   0  0  0  0  0  0  0  0  0  0  0  0
   -1.2896    0.8839    0.1790 C   0  0  0  0  0  0  0  0  0  0  0  0
    0.9561    0.0638   -0.4042 C   0  0  0  0  0  0  0  0  0  0  0  0
   -2.2786    1.5743   -0.4983 C   0  0  0  0  0  0  0  0  0  0  0  0
    3.6674    0.5653   -0.1959 C   0  0  0  0  0  0  0  0  0  0  0  0
   -0.5215   -0.2095   -0.5177 C   0  0  0  0  0  0  0  0  0  0  0  0
   -2.5606   -1.9901   -0.1976 Cl  0  0  0  0  0  0  0  0  0  0  0  0
    0.2414   -2.8264   -0.5406 Cl  0  0  0  0  0  0  0  0  0  0  0  0
   -0.5889   -1.4337    1.9170 Cl  0  0  0  0  0  0  0  0  0  0  0  0
   -2.6360    1.1807   -2.1509 Cl  0  0  0  0  0  0  0  0  0  0  0  0
    5.3695    0.8807   -0.0651 Cl  0  0  0  0  0  0  0  0  0  0  0  0
   -0.8431   -1.5549    0.1361 C   0  0  0  0  0  0  0  0  0  0  0  0
   -0.8057   -0.2396   -1.5696 H   0  0  0  0  0  0  0  0  0  0  0  0
   -0.2306    0.6615    2.0227 H   0  0  0  0  0  0  0  0  0  0  0  0
    0.9984   -0.2146    1.7150 H   0  0  0  0  0  0  0  0  0  0  0  0
    1.2101    0.3920   -2.5013 H   0  0  0  0  0  0  0  0  0  0  0  0
   -3.7550    3.1182   -0.3865 H   0  0  0  0  0  0  0  0  0  0  0  0
    3.4116    0.2366    1.9021 H   0  0  0  0  0  0  0  0  0  0  0  0
    3.6245    0.8379   -2.3170 H   0  0  0  0  0  0  0  0  0  0  0  0
   -1.4878    2.4451    3.1625 H   0  0  0  0  0  0  0  0  0  0  0  0
   -3.2481    3.6749    1.9575 H   0  0  0  0  0  0  0  0  0  0  0  0
 14 19  1  0  0  0  0
 15 19  1  0  0  0  0
 16 19  1  0  0  0  0
 11 17  1  0  0  0  0
 12 18  1  0  0  0  0
 13 19  1  0  0  0  0
  9 13  1  0  0  0  0
 10 13  1  0  0  0  0
  9 11  2  0  0  0  0
  1  9  1  0  0  0  0
  2 10  2  0  0  0  0
  3 10  1  0  0  0  0
  4 11  1  0  0  0  0
  1  7  2  0  0  0  0
  2  5  1  0  0  0  0
  3  6  2  0  0  0  0
  4  8  2  0  0  0  0
  5 12  2  0  0  0  0
  6 12  1  0  0  0  0
  7  8  1  0  0  0  0
 13 20  1  0  0  0  0
  1 21  1  0  0  0  0
  2 22  1  0  0  0  0
  3 23  1  0  0  0  0
  4 24  1  0  0  0  0
  5 25  1  0  0  0  0
  6 26  1  0  0  0  0
  7 27  1  0  0  0  0
  8 28  1  0  0  0  0
M  END
$$$$
