C11H14O
APtclcactv12211717343D 0   0.00000     0.00000
 
 26 26  0  0  0  0  0  0  0  0999 V2000
   -0.3603   -0.6923   -1.1903 C   0  0  0  0  0  0  0  0  0  0  0  0
   -1.4875   -0.7303   -0.1908 C   0  0  0  0  0  0  0  0  0  0  0  0
   -2.6487   -0.2046   -0.4928 C   0  0  0  0  0  0  0  0  0  0  0  0
   -3.7759   -0.2426    0.5067 C   0  0  0  0  0  0  0  0  0  0  0  0
   -4.2918    1.1775    0.7479 C   0  0  0  0  0  0  0  0  0  0  0  0
    0.8476   -0.0472   -0.5610 C   0  0  0  0  0  0  0  0  0  0  0  0
    1.7242   -0.8080    0.1986 C   0  0  0  0  0  0  0  0  0  0  0  0
    2.8356   -0.2111    0.7763 C   0  0  0  0  0  0  0  0  0  0  0  0
    3.0665    1.1384    0.5938 C   0  0  0  0  0  0  0  0  0  0  0  0
    2.1909    1.8947   -0.1636 C   0  0  0  0  0  0  0  0  0  0  0  0
    1.0859    1.3012   -0.7449 C   0  0  0  0  0  0  0  0  0  0  0  0
    1.4945   -2.1355    0.3771 O   0  0  0  0  0  0  0  0  0  0  0  0
   -0.1115   -1.7085   -1.4962 H   0  0  0  0  0  0  0  0  0  0  0  0
   -0.6674   -0.1153   -2.0625 H   0  0  0  0  0  0  0  0  0  0  0  0
   -1.3379   -1.1909    0.7746 H   0  0  0  0  0  0  0  0  0  0  0  0
   -2.7983    0.2560   -1.4582 H   0  0  0  0  0  0  0  0  0  0  0  0
   -4.5847   -0.8619    0.1189 H   0  0  0  0  0  0  0  0  0  0  0  0
   -3.4150   -0.6624    1.4456 H   0  0  0  0  0  0  0  0  0  0  0  0
   -5.1070    1.1501    1.4708 H   0  0  0  0  0  0  0  0  0  0  0  0
   -3.4830    1.7969    1.1357 H   0  0  0  0  0  0  0  0  0  0  0  0
   -4.6527    1.5973   -0.1911 H   0  0  0  0  0  0  0  0  0  0  0  0
    3.5194   -0.8012    1.3684 H   0  0  0  0  0  0  0  0  0  0  0  0
    3.9315    1.6034    1.0432 H   0  0  0  0  0  0  0  0  0  0  0  0
    2.3728    2.9498   -0.3045 H   0  0  0  0  0  0  0  0  0  0  0  0
    0.4034    1.8940   -1.3359 H   0  0  0  0  0  0  0  0  0  0  0  0
    1.9005   -2.6988   -0.2959 H   0  0  0  0  0  0  0  0  0  0  0  0
  1  2  1  0  0  0  0
  2  3  2  0  0  0  0
  3  4  1  0  0  0  0
  4  5  1  0  0  0  0
  1  6  1  0  0  0  0
  6  7  2  0  0  0  0
  7  8  1  0  0  0  0
  8  9  2  0  0  0  0
  9 10  1  0  0  0  0
 10 11  2  0  0  0  0
  6 11  1  0  0  0  0
  7 12  1  0  0  0  0
  1 13  1  0  0  0  0
  1 14  1  0  0  0  0
  2 15  1  0  0  0  0
  3 16  1  0  0  0  0
  4 17  1  0  0  0  0
  4 18  1  0  0  0  0
  5 19  1  0  0  0  0
  5 20  1  0  0  0  0
  5 21  1  0  0  0  0
  8 22  1  0  0  0  0
  9 23  1  0  0  0  0
 10 24  1  0  0  0  0
 11 25  1  0  0  0  0
 12 26  1  0  0  0  0
M  END
$$$$
