C7H7NO2
APtclcactv12151716173D 0   0.00000     0.00000
 
 17 17  0  0  0  0  0  0  0  0999 V2000
    0.1002    2.1699   -0.0407 N   0  0  0  0  0  0  0  0  0  0  0  0
   -0.5669    0.9526   -0.0186 C   0  0  0  0  0  0  0  0  0  0  0  0
    0.1583   -0.2494    0.0067 C   0  0  0  0  0  0  0  0  0  0  0  0
    1.6310   -0.2266    0.0101 C   0  0  0  0  0  0  0  0  0  0  0  0
    2.2221    0.8316    0.0985 O   0  0  0  0  0  0  0  0  0  0  0  0
    2.3231   -1.3791   -0.0848 O   0  0  0  0  0  0  0  0  0  0  0  0
   -0.5264   -1.4680    0.0292 C   0  0  0  0  0  0  0  0  0  0  0  0
   -1.9036   -1.4823    0.0264 C   0  0  0  0  0  0  0  0  0  0  0  0
   -2.6166   -0.2937    0.0013 C   0  0  0  0  0  0  0  0  0  0  0  0
   -1.9561    0.9172   -0.0157 C   0  0  0  0  0  0  0  0  0  0  0  0
    1.0663    2.1951    0.0428 H   0  0  0  0  0  0  0  0  0  0  0  0
   -0.3994    2.9949   -0.1436 H   0  0  0  0  0  0  0  0  0  0  0  0
    3.2878   -1.3137   -0.0784 H   0  0  0  0  0  0  0  0  0  0  0  0
    0.0239   -2.3971    0.0485 H   0  0  0  0  0  0  0  0  0  0  0  0
   -2.4309   -2.4247    0.0435 H   0  0  0  0  0  0  0  0  0  0  0  0
   -3.6964   -0.3159   -0.0007 H   0  0  0  0  0  0  0  0  0  0  0  0
   -2.5192    1.8386   -0.0349 H   0  0  0  0  0  0  0  0  0  0  0  0
  1  2  1  0  0  0  0
  2  3  2  0  0  0  0
  3  4  1  0  0  0  0
  4  5  2  0  0  0  0
  4  6  1  0  0  0  0
  3  7  1  0  0  0  0
  7  8  2  0  0  0  0
  8  9  1  0  0  0  0
  9 10  2  0  0  0  0
  2 10  1  0  0  0  0
  1 11  1  0  0  0  0
  1 12  1  0  0  0  0
  6 13  1  0  0  0  0
  7 14  1  0  0  0  0
  8 15  1  0  0  0  0
  9 16  1  0  0  0  0
 10 17  1  0  0  0  0
M  END
$$$$
