C10H14O2
APtclcactv12211717273D 0   0.00000     0.00000
 
 26 26  0  0  0  0  0  0  0  0999 V2000
   -1.4400   -0.3822    0.0003 C   0  0  0  0  0  0  0  0  0  0  0  0
   -2.7704    0.3734   -0.0064 C   0  0  0  0  0  0  0  0  0  0  0  0
   -3.9262   -0.6291    0.0061 C   0  0  0  0  0  0  0  0  0  0  0  0
   -5.2566    0.1265   -0.0005 C   0  0  0  0  0  0  0  0  0  0  0  0
   -0.3605    0.5541   -0.0114 O   0  0  0  0  0  0  0  0  0  0  0  0
    0.8999    0.0433   -0.0073 C   0  0  0  0  0  0  0  0  0  0  0  0
    1.9985    0.8973   -0.0181 C   0  0  0  0  0  0  0  0  0  0  0  0
    3.2807    0.3719   -0.0139 C   0  0  0  0  0  0  0  0  0  0  0  0
    3.4663   -0.9979    0.0009 C   0  0  0  0  0  0  0  0  0  0  0  0
    2.3748   -1.8464    0.0111 C   0  0  0  0  0  0  0  0  0  0  0  0
    1.0930   -1.3287    0.0133 C   0  0  0  0  0  0  0  0  0  0  0  0
    1.8141    2.2446   -0.0331 O   0  0  0  0  0  0  0  0  0  0  0  0
   -1.3767   -0.9985    0.8971 H   0  0  0  0  0  0  0  0  0  0  0  0
   -1.3789   -1.0182   -0.8828 H   0  0  0  0  0  0  0  0  0  0  0  0
   -2.8315    1.0094    0.8767 H   0  0  0  0  0  0  0  0  0  0  0  0
   -2.8337    0.9898   -0.9031 H   0  0  0  0  0  0  0  0  0  0  0  0
   -3.8651   -1.2651   -0.8770 H   0  0  0  0  0  0  0  0  0  0  0  0
   -3.8629   -1.2454    0.9029 H   0  0  0  0  0  0  0  0  0  0  0  0
   -6.0801   -0.5877    0.0084 H   0  0  0  0  0  0  0  0  0  0  0  0
   -5.3177    0.7625    0.8826 H   0  0  0  0  0  0  0  0  0  0  0  0
   -5.3200    0.7429   -0.8973 H   0  0  0  0  0  0  0  0  0  0  0  0
    4.1350    1.0326   -0.0226 H   0  0  0  0  0  0  0  0  0  0  0  0
    4.4662   -1.4061    0.0041 H   0  0  0  0  0  0  0  0  0  0  0  0
    2.5240   -2.9160    0.0223 H   0  0  0  0  0  0  0  0  0  0  0  0
    0.2420   -1.9937    0.0213 H   0  0  0  0  0  0  0  0  0  0  0  0
    1.7617    2.6443    0.8459 H   0  0  0  0  0  0  0  0  0  0  0  0
  1  2  1  0  0  0  0
  2  3  1  0  0  0  0
  3  4  1  0  0  0  0
  1  5  1  0  0  0  0
  5  6  1  0  0  0  0
  6  7  2  0  0  0  0
  7  8  1  0  0  0  0
  8  9  2  0  0  0  0
  9 10  1  0  0  0  0
 10 11  2  0  0  0  0
  6 11  1  0  0  0  0
  7 12  1  0  0  0  0
  1 13  1  0  0  0  0
  1 14  1  0  0  0  0
  2 15  1  0  0  0  0
  2 16  1  0  0  0  0
  3 17  1  0  0  0  0
  3 18  1  0  0  0  0
  4 19  1  0  0  0  0
  4 20  1  0  0  0  0
  4 21  1  0  0  0  0
  8 22  1  0  0  0  0
  9 23  1  0  0  0  0
 10 24  1  0  0  0  0
 11 25  1  0  0  0  0
 12 26  1  0  0  0  0
M  END
$$$$
