C6H5ClO
APtclcactv12211716503D 0   0.00000     0.00000
 
 13 13  0  0  0  0  0  0  0  0999 V2000
   -2.0710   -0.4913   -0.0056 Cl  0  0  0  0  0  0  0  0  0  0  0  0
   -0.3421   -0.3338   -0.0044 C   0  0  0  0  0  0  0  0  0  0  0  0
    0.2408    0.9260   -0.0180 C   0  0  0  0  0  0  0  0  0  0  0  0
    1.6225    1.0481   -0.0164 C   0  0  0  0  0  0  0  0  0  0  0  0
    2.4150   -0.0834   -0.0014 C   0  0  0  0  0  0  0  0  0  0  0  0
    1.8325   -1.3374    0.0121 C   0  0  0  0  0  0  0  0  0  0  0  0
    0.4557   -1.4627    0.0159 C   0  0  0  0  0  0  0  0  0  0  0  0
   -0.5409    2.0378   -0.0332 O   0  0  0  0  0  0  0  0  0  0  0  0
    2.0784    2.0271   -0.0273 H   0  0  0  0  0  0  0  0  0  0  0  0
    3.4909    0.0116   -0.0006 H   0  0  0  0  0  0  0  0  0  0  0  0
    2.4542   -2.2204    0.0238 H   0  0  0  0  0  0  0  0  0  0  0  0
    0.0031   -2.4432    0.0268 H   0  0  0  0  0  0  0  0  0  0  0  0
   -0.7693    2.3701    0.8458 H   0  0  0  0  0  0  0  0  0  0  0  0
  1  2  1  0  0  0  0
  2  3  2  0  0  0  0
  3  4  1  0  0  0  0
  4  5  2  0  0  0  0
  5  6  1  0  0  0  0
  6  7  2  0  0  0  0
  2  7  1  0  0  0  0
  3  8  1  0  0  0  0
  4  9  1  0  0  0  0
  5 10  1  0  0  0  0
  6 11  1  0  0  0  0
  7 12  1  0  0  0  0
  8 13  1  0  0  0  0
M  END
$$$$
