C14H14O3S
APtclcactv12151716113D 0   0.00000     0.00000
 
 32 33  0  0  0  0  0  0  0  0999 V2000
   -1.6735    0.2305    0.6225 C   0  0  0  0  0  0  0  0  0  0  0  0
   -2.9057    0.2561   -0.0140 C   0  0  0  0  0  0  0  0  0  0  0  0
   -3.4828    1.4653   -0.3512 C   0  0  0  0  0  0  0  0  0  0  0  0
   -2.8333    2.6491   -0.0547 C   0  0  0  0  0  0  0  0  0  0  0  0
   -1.6046    2.6263    0.5795 C   0  0  0  0  0  0  0  0  0  0  0  0
   -1.0237    1.4201    0.9190 C   0  0  0  0  0  0  0  0  0  0  0  0
   -3.6141   -1.0340   -0.3379 C   0  0  0  0  0  0  0  0  0  0  0  0
   -1.1064   -0.9574    0.9602 O   0  0  0  0  0  0  0  0  0  0  0  0
   -0.2110   -1.5455   -0.1210 S   0  0  0  0  0  0  0  0  0  0  0  0
    0.1289   -2.8566    0.3088 O   0  0  0  0  0  0  0  0  0  0  0  0
   -0.8494   -1.2752   -1.3614 O   0  0  0  0  0  0  0  0  0  0  0  0
    1.2868   -0.6174   -0.1196 C   0  0  0  0  0  0  0  0  0  0  0  0
    2.3429   -1.0108    0.6810 C   0  0  0  0  0  0  0  0  0  0  0  0
    3.5179   -0.2827    0.6821 C   0  0  0  0  0  0  0  0  0  0  0  0
    3.6371    0.8385   -0.1177 C   0  0  0  0  0  0  0  0  0  0  0  0
    2.5813    1.2313   -0.9189 C   0  0  0  0  0  0  0  0  0  0  0  0
    1.4078    0.5007   -0.9233 C   0  0  0  0  0  0  0  0  0  0  0  0
    4.9177    1.6328   -0.1157 C   0  0  0  0  0  0  0  0  0  0  0  0
   -4.4420    1.4857   -0.8471 H   0  0  0  0  0  0  0  0  0  0  0  0
   -3.2861    3.5933   -0.3191 H   0  0  0  0  0  0  0  0  0  0  0  0
   -1.0988    3.5524    0.8094 H   0  0  0  0  0  0  0  0  0  0  0  0
   -0.0642    1.4028    1.4146 H   0  0  0  0  0  0  0  0  0  0  0  0
   -4.2559   -1.3156    0.4969 H   0  0  0  0  0  0  0  0  0  0  0  0
   -4.2207   -0.9004   -1.2336 H   0  0  0  0  0  0  0  0  0  0  0  0
   -2.8780   -1.8190   -0.5114 H   0  0  0  0  0  0  0  0  0  0  0  0
    2.2498   -1.8868    1.3058 H   0  0  0  0  0  0  0  0  0  0  0  0
    4.3428   -0.5897    1.3080 H   0  0  0  0  0  0  0  0  0  0  0  0
    2.6743    2.1075   -1.5435 H   0  0  0  0  0  0  0  0  0  0  0  0
    0.5829    0.8077   -1.5492 H   0  0  0  0  0  0  0  0  0  0  0  0
    5.5896    1.2408   -0.8793 H   0  0  0  0  0  0  0  0  0  0  0  0
    4.6968    2.6788   -0.3285 H   0  0  0  0  0  0  0  0  0  0  0  0
    5.3930    1.5534    0.8620 H   0  0  0  0  0  0  0  0  0  0  0  0
  1  2  2  0  0  0  0
  2  3  1  0  0  0  0
  3  4  2  0  0  0  0
  4  5  1  0  0  0  0
  5  6  2  0  0  0  0
  1  6  1  0  0  0  0
  2  7  1  0  0  0  0
  1  8  1  0  0  0  0
  8  9  1  0  0  0  0
  9 10  2  0  0  0  0
  9 11  2  0  0  0  0
  9 12  1  0  0  0  0
 12 13  2  0  0  0  0
 13 14  1  0  0  0  0
 14 15  2  0  0  0  0
 15 16  1  0  0  0  0
 16 17  2  0  0  0  0
 12 17  1  0  0  0  0
 15 18  1  0  0  0  0
  3 19  1  0  0  0  0
  4 20  1  0  0  0  0
  5 21  1  0  0  0  0
  6 22  1  0  0  0  0
  7 23  1  0  0  0  0
  7 24  1  0  0  0  0
  7 25  1  0  0  0  0
 13 26  1  0  0  0  0
 14 27  1  0  0  0  0
 16 28  1  0  0  0  0
 17 29  1  0  0  0  0
 18 30  1  0  0  0  0
 18 31  1  0  0  0  0
 18 32  1  0  0  0  0
M  END
$$$$
