C12H16O
APtclcactv12111705013D 0   0.00000     0.00000
 
 29 30  0  0  0  0  0  0  0  0999 V2000
    0.7432    0.3224    0.0115 C   0  0  0  0  0  0  0  0  0  0  0  0
    1.4204   -0.2740    1.2470 C   0  0  0  0  0  0  0  0  0  0  0  0
    2.9010    0.1117    1.2533 C   0  0  0  0  0  0  0  0  0  0  0  0
    3.5745   -0.4302   -0.0091 C   0  0  0  0  0  0  0  0  0  0  0  0
    2.8973    0.1662   -1.2446 C   0  0  0  0  0  0  0  0  0  0  0  0
    1.4167   -0.2195   -1.2509 C   0  0  0  0  0  0  0  0  0  0  0  0
   -0.7151   -0.0575    0.0053 C   0  0  0  0  0  0  0  0  0  0  0  0
   -1.6896    0.9293    0.0283 C   0  0  0  0  0  0  0  0  0  0  0  0
   -3.0315    0.5763    0.0221 C   0  0  0  0  0  0  0  0  0  0  0  0
   -3.3936   -0.7563   -0.0070 C   0  0  0  0  0  0  0  0  0  0  0  0
   -2.4202   -1.7383   -0.0294 C   0  0  0  0  0  0  0  0  0  0  0  0
   -1.0826   -1.3890   -0.0290 C   0  0  0  0  0  0  0  0  0  0  0  0
   -1.3308    2.2398    0.0573 O   0  0  0  0  0  0  0  0  0  0  0  0
    0.8357    1.4082    0.0350 H   0  0  0  0  0  0  0  0  0  0  0  0
    0.9406    0.1121    2.1463 H   0  0  0  0  0  0  0  0  0  0  0  0
    1.3279   -1.3598    1.2234 H   0  0  0  0  0  0  0  0  0  0  0  0
    2.9934    1.1975    1.2768 H   0  0  0  0  0  0  0  0  0  0  0  0
    3.3834   -0.3132    2.1335 H   0  0  0  0  0  0  0  0  0  0  0  0
    4.6293   -0.1554   -0.0047 H   0  0  0  0  0  0  0  0  0  0  0  0
    3.4820   -1.5160   -0.0327 H   0  0  0  0  0  0  0  0  0  0  0  0
    2.9898    1.2521   -1.2211 H   0  0  0  0  0  0  0  0  0  0  0  0
    3.3771   -0.2198   -2.1440 H   0  0  0  0  0  0  0  0  0  0  0  0
    1.3243   -1.3053   -1.2744 H   0  0  0  0  0  0  0  0  0  0  0  0
    0.9343    0.2054   -2.1311 H   0  0  0  0  0  0  0  0  0  0  0  0
   -3.7921    1.3428    0.0403 H   0  0  0  0  0  0  0  0  0  0  0  0
   -4.4379   -1.0316   -0.0118 H   0  0  0  0  0  0  0  0  0  0  0  0
   -2.7054   -2.7797   -0.0513 H   0  0  0  0  0  0  0  0  0  0  0  0
   -0.3242   -2.1577   -0.0465 H   0  0  0  0  0  0  0  0  0  0  0  0
   -1.2277    2.6388   -0.8175 H   0  0  0  0  0  0  0  0  0  0  0  0
  1  2  1  0  0  0  0
  2  3  1  0  0  0  0
  3  4  1  0  0  0  0
  4  5  1  0  0  0  0
  5  6  1  0  0  0  0
  1  6  1  0  0  0  0
  1  7  1  0  0  0  0
  7  8  2  0  0  0  0
  8  9  1  0  0  0  0
  9 10  2  0  0  0  0
 10 11  1  0  0  0  0
 11 12  2  0  0  0  0
  7 12  1  0  0  0  0
  8 13  1  0  0  0  0
  1 14  1  0  0  0  0
  2 15  1  0  0  0  0
  2 16  1  0  0  0  0
  3 17  1  0  0  0  0
  3 18  1  0  0  0  0
  4 19  1  0  0  0  0
  4 20  1  0  0  0  0
  5 21  1  0  0  0  0
  5 22  1  0  0  0  0
  6 23  1  0  0  0  0
  6 24  1  0  0  0  0
  9 25  1  0  0  0  0
 10 26  1  0  0  0  0
 11 27  1  0  0  0  0
 12 28  1  0  0  0  0
 13 29  1  0  0  0  0
M  END
$$$$
