C6H4N2O4
APtclcactv12211716493D 0   0.00000     0.00000
 
 16 16  0  0  0  0  0  0  0  0999 V2000
    1.1069   -1.3100    0.0628 N   0  3  0  0  0  0  0  0  0  0  0  0
    1.3985   -2.1975   -0.7188 O   0  0  0  0  0  0  0  0  0  0  0  0
    1.9354   -0.9010    0.8565 O   0  5  0  0  0  0  0  0  0  0  0  0
   -0.2523   -0.7244    0.0441 C   0  0  0  0  0  0  0  0  0  0  0  0
   -0.4133    0.6463   -0.0313 C   0  0  0  0  0  0  0  0  0  0  0  0
   -1.6829    1.1933   -0.0488 C   0  0  0  0  0  0  0  0  0  0  0  0
   -2.7912    0.3694    0.0087 C   0  0  0  0  0  0  0  0  0  0  0  0
   -2.6302   -1.0017    0.0832 C   0  0  0  0  0  0  0  0  0  0  0  0
   -1.3610   -1.5488    0.0963 C   0  0  0  0  0  0  0  0  0  0  0  0
    0.7736    1.5285   -0.0929 N   0  3  0  0  0  0  0  0  0  0  0  0
    0.6376    2.7374   -0.0324 O   0  0  0  0  0  0  0  0  0  0  0  0
    1.8862    1.0457   -0.2041 O   0  5  0  0  0  0  0  0  0  0  0  0
   -1.8087    2.2643   -0.1070 H   0  0  0  0  0  0  0  0  0  0  0  0
   -3.7830    0.7968   -0.0043 H   0  0  0  0  0  0  0  0  0  0  0  0
   -3.4962   -1.6454    0.1285 H   0  0  0  0  0  0  0  0  0  0  0  0
   -1.2352   -2.6199    0.1545 H   0  0  0  0  0  0  0  0  0  0  0  0
  1  2  2  0  0  0  0
  1  3  1  0  0  0  0
  1  4  1  0  0  0  0
  4  5  2  0  0  0  0
  5  6  1  0  0  0  0
  6  7  2  0  0  0  0
  7  8  1  0  0  0  0
  8  9  2  0  0  0  0
  4  9  1  0  0  0  0
  5 10  1  0  0  0  0
 10 11  2  0  0  0  0
 10 12  1  0  0  0  0
  6 13  1  0  0  0  0
  7 14  1  0  0  0  0
  8 15  1  0  0  0  0
  9 16  1  0  0  0  0
M  CHG  4   1   1   3  -1  10   1  12  -1
M  END
$$$$
