C10H14O
APtclcactv12211717263D 0   0.00000     0.00000
 
 25 25  0  0  0  0  0  0  0  0999 V2000
   -0.8916    0.2100   -0.9503 C   0  0  0  0  0  0  0  0  0  0  0  0
   -1.8741    0.2193    0.2225 C   0  0  0  0  0  0  0  0  0  0  0  0
   -3.3069    0.1706   -0.3121 C   0  0  0  0  0  0  0  0  0  0  0  0
   -4.2894    0.1800    0.8606 C   0  0  0  0  0  0  0  0  0  0  0  0
    0.5196    0.2579   -0.4237 C   0  0  0  0  0  0  0  0  0  0  0  0
    1.1612   -0.9137   -0.0499 C   0  0  0  0  0  0  0  0  0  0  0  0
    2.4607   -0.8663    0.4341 C   0  0  0  0  0  0  0  0  0  0  0  0
    3.1122    0.3468    0.5426 C   0  0  0  0  0  0  0  0  0  0  0  0
    2.4702    1.5135    0.1698 C   0  0  0  0  0  0  0  0  0  0  0  0
    1.1775    1.4683   -0.3181 C   0  0  0  0  0  0  0  0  0  0  0  0
    0.5180   -2.1060   -0.1572 O   0  0  0  0  0  0  0  0  0  0  0  0
   -1.0309   -0.7001   -1.5338 H   0  0  0  0  0  0  0  0  0  0  0  0
   -1.0729    1.0787   -1.5831 H   0  0  0  0  0  0  0  0  0  0  0  0
   -1.6928   -0.6494    0.8554 H   0  0  0  0  0  0  0  0  0  0  0  0
   -1.7348    1.1294    0.8060 H   0  0  0  0  0  0  0  0  0  0  0  0
   -3.4882    1.0394   -0.9450 H   0  0  0  0  0  0  0  0  0  0  0  0
   -3.4462   -0.7394   -0.8956 H   0  0  0  0  0  0  0  0  0  0  0  0
   -5.3101    0.1453    0.4798 H   0  0  0  0  0  0  0  0  0  0  0  0
   -4.1081   -0.6887    1.4935 H   0  0  0  0  0  0  0  0  0  0  0  0
   -4.1501    1.0900    1.4441 H   0  0  0  0  0  0  0  0  0  0  0  0
    2.9623   -1.7771    0.7261 H   0  0  0  0  0  0  0  0  0  0  0  0
    4.1237    0.3843    0.9193 H   0  0  0  0  0  0  0  0  0  0  0  0
    2.9810    2.4612    0.2560 H   0  0  0  0  0  0  0  0  0  0  0  0
    0.6782    2.3809   -0.6086 H   0  0  0  0  0  0  0  0  0  0  0  0
    0.6411   -2.5440   -1.0105 H   0  0  0  0  0  0  0  0  0  0  0  0
  1  2  1  0  0  0  0
  2  3  1  0  0  0  0
  3  4  1  0  0  0  0
  1  5  1  0  0  0  0
  5  6  2  0  0  0  0
  6  7  1  0  0  0  0
  7  8  2  0  0  0  0
  8  9  1  0  0  0  0
  9 10  2  0  0  0  0
  5 10  1  0  0  0  0
  6 11  1  0  0  0  0
  1 12  1  0  0  0  0
  1 13  1  0  0  0  0
  2 14  1  0  0  0  0
  2 15  1  0  0  0  0
  3 16  1  0  0  0  0
  3 17  1  0  0  0  0
  4 18  1  0  0  0  0
  4 19  1  0  0  0  0
  4 20  1  0  0  0  0
  7 21  1  0  0  0  0
  8 22  1  0  0  0  0
  9 23  1  0  0  0  0
 10 24  1  0  0  0  0
 11 25  1  0  0  0  0
M  END
$$$$
