C6H5NO3
APtclcactv12211716513D 0   0.00000     0.00000
 
 15 15  0  0  0  0  0  0  0  0999 V2000
    1.6261   -0.3280    0.0062 N   0  3  0  0  0  0  0  0  0  0  0  0
    2.2026   -1.4008   -0.0041 O   0  0  0  0  0  0  0  0  0  0  0  0
    2.2669    0.7078    0.0125 O   0  5  0  0  0  0  0  0  0  0  0  0
    0.1467   -0.2829    0.0047 C   0  0  0  0  0  0  0  0  0  0  0  0
   -0.5105    0.9386    0.0164 C   0  0  0  0  0  0  0  0  0  0  0  0
   -1.8975    0.9775    0.0151 C   0  0  0  0  0  0  0  0  0  0  0  0
   -2.6202   -0.1994    0.0021 C   0  0  0  0  0  0  0  0  0  0  0  0
   -1.9626   -1.4159   -0.0095 C   0  0  0  0  0  0  0  0  0  0  0  0
   -0.5808   -1.4573   -0.0139 C   0  0  0  0  0  0  0  0  0  0  0  0
    0.2029    2.0952    0.0296 O   0  0  0  0  0  0  0  0  0  0  0  0
   -2.4115    1.9273    0.0245 H   0  0  0  0  0  0  0  0  0  0  0  0
   -3.6998   -0.1697    0.0014 H   0  0  0  0  0  0  0  0  0  0  0  0
   -2.5295   -2.3351   -0.0192 H   0  0  0  0  0  0  0  0  0  0  0  0
   -0.0696   -2.4086   -0.0230 H   0  0  0  0  0  0  0  0  0  0  0  0
    0.4107    2.4392   -0.8500 H   0  0  0  0  0  0  0  0  0  0  0  0
  1  2  2  0  0  0  0
  1  3  1  0  0  0  0
  1  4  1  0  0  0  0
  4  5  2  0  0  0  0
  5  6  1  0  0  0  0
  6  7  2  0  0  0  0
  7  8  1  0  0  0  0
  8  9  2  0  0  0  0
  4  9  1  0  0  0  0
  5 10  1  0  0  0  0
  6 11  1  0  0  0  0
  7 12  1  0  0  0  0
  8 13  1  0  0  0  0
  9 14  1  0  0  0  0
 10 15  1  0  0  0  0
M  CHG  2   1   1   3  -1
M  END
$$$$
