C7H5NO3
APtclcactv12151716133D 0   0.00000     0.00000
 
 16 16  0  0  0  0  0  0  0  0999 V2000
    1.7480   -0.2962    0.0301 N   0  3  0  0  0  0  0  0  0  0  0  0
    2.4901   -1.0587   -0.5627 O   0  0  0  0  0  0  0  0  0  0  0  0
    2.2073    0.6662    0.6185 O   0  5  0  0  0  0  0  0  0  0  0  0
    0.2873   -0.5358    0.0302 C   0  0  0  0  0  0  0  0  0  0  0  0
   -0.5999    0.5420   -0.0520 C   0  0  0  0  0  0  0  0  0  0  0  0
   -0.0857    1.9182   -0.1391 C   0  0  0  0  0  0  0  0  0  0  0  0
   -0.8544    2.8555   -0.1099 O   0  0  0  0  0  0  0  0  0  0  0  0
   -1.9784    0.3053   -0.0516 C   0  0  0  0  0  0  0  0  0  0  0  0
   -2.4522   -0.9869    0.0297 C   0  0  0  0  0  0  0  0  0  0  0  0
   -1.5676   -2.0484    0.1114 C   0  0  0  0  0  0  0  0  0  0  0  0
   -0.2022   -1.8228    0.1058 C   0  0  0  0  0  0  0  0  0  0  0  0
    0.9762    2.0933   -0.2289 H   0  0  0  0  0  0  0  0  0  0  0  0
   -2.6698    1.1325   -0.1146 H   0  0  0  0  0  0  0  0  0  0  0  0
   -3.5163   -1.1713    0.0301 H   0  0  0  0  0  0  0  0  0  0  0  0
   -1.9448   -3.0584    0.1752 H   0  0  0  0  0  0  0  0  0  0  0  0
    0.4817   -2.6563    0.1695 H   0  0  0  0  0  0  0  0  0  0  0  0
  1  2  2  0  0  0  0
  1  3  1  0  0  0  0
  1  4  1  0  0  0  0
  4  5  2  0  0  0  0
  5  6  1  0  0  0  0
  6  7  2  0  0  0  0
  5  8  1  0  0  0  0
  8  9  2  0  0  0  0
  9 10  1  0  0  0  0
 10 11  2  0  0  0  0
  4 11  1  0  0  0  0
  6 12  1  0  0  0  0
  8 13  1  0  0  0  0
  9 14  1  0  0  0  0
 10 15  1  0  0  0  0
 11 16  1  0  0  0  0
M  CHG  2   1   1   3  -1
M  END
$$$$
