C15H22O3
APtclcactv12211717093D 0   0.00000     0.00000
 
 40 40  0  0  0  0  0  0  0  0999 V2000
    7.0430   -1.4416   -0.0177 O   0  0  0  0  0  0  0  0  0  0  0  0
    5.8186   -0.8565   -0.0136 C   0  0  0  0  0  0  0  0  0  0  0  0
    5.7128    0.5296   -0.0067 C   0  0  0  0  0  0  0  0  0  0  0  0
    4.4725    1.1273   -0.0021 C   0  0  0  0  0  0  0  0  0  0  0  0
    3.3186    0.3382   -0.0048 C   0  0  0  0  0  0  0  0  0  0  0  0
    1.9880    0.9740   -0.0004 C   0  0  0  0  0  0  0  0  0  0  0  0
    1.8936    2.1853    0.0057 O   0  0  0  0  0  0  0  0  0  0  0  0
    0.8770    0.2116   -0.0030 O   0  0  0  0  0  0  0  0  0  0  0  0
   -0.3986    0.9053    0.0017 C   0  0  0  0  0  0  0  0  0  0  0  0
   -1.5358   -0.1182   -0.0022 C   0  0  0  0  0  0  0  0  0  0  0  0
   -2.8799    0.6129    0.0027 C   0  0  0  0  0  0  0  0  0  0  0  0
   -4.0171   -0.4107   -0.0011 C   0  0  0  0  0  0  0  0  0  0  0  0
   -5.3612    0.3204    0.0038 C   0  0  0  0  0  0  0  0  0  0  0  0
   -6.4984   -0.7031   -0.0001 C   0  0  0  0  0  0  0  0  0  0  0  0
   -7.8425    0.0279    0.0048 C   0  0  0  0  0  0  0  0  0  0  0  0
   -8.9797   -0.9956    0.0010 C   0  0  0  0  0  0  0  0  0  0  0  0
    3.4295   -1.0553   -0.0122 C   0  0  0  0  0  0  0  0  0  0  0  0
    4.6737   -1.6449   -0.0220 C   0  0  0  0  0  0  0  0  0  0  0  0
    7.3987   -1.6155    0.8645 H   0  0  0  0  0  0  0  0  0  0  0  0
    6.6048    1.1385   -0.0046 H   0  0  0  0  0  0  0  0  0  0  0  0
    4.3912    2.2042    0.0040 H   0  0  0  0  0  0  0  0  0  0  0  0
   -0.4713    1.5260    0.8948 H   0  0  0  0  0  0  0  0  0  0  0  0
   -0.4731    1.5347   -0.8852 H   0  0  0  0  0  0  0  0  0  0  0  0
   -1.4630   -0.7388   -0.8953 H   0  0  0  0  0  0  0  0  0  0  0  0
   -1.4612   -0.7475    0.8847 H   0  0  0  0  0  0  0  0  0  0  0  0
   -2.9526    1.2335    0.8958 H   0  0  0  0  0  0  0  0  0  0  0  0
   -2.9544    1.2422   -0.8841 H   0  0  0  0  0  0  0  0  0  0  0  0
   -3.9443   -1.0313   -0.8942 H   0  0  0  0  0  0  0  0  0  0  0  0
   -3.9425   -1.0400    0.8857 H   0  0  0  0  0  0  0  0  0  0  0  0
   -5.4339    0.9410    0.8969 H   0  0  0  0  0  0  0  0  0  0  0  0
   -5.4357    0.9497   -0.8831 H   0  0  0  0  0  0  0  0  0  0  0  0
   -6.4256   -1.3238   -0.8932 H   0  0  0  0  0  0  0  0  0  0  0  0
   -6.4238   -1.3325    0.8867 H   0  0  0  0  0  0  0  0  0  0  0  0
   -7.9152    0.6485    0.8979 H   0  0  0  0  0  0  0  0  0  0  0  0
   -7.9170    0.6572   -0.8820 H   0  0  0  0  0  0  0  0  0  0  0  0
   -8.9069   -1.6163   -0.8921 H   0  0  0  0  0  0  0  0  0  0  0  0
   -8.9051   -1.6250    0.8878 H   0  0  0  0  0  0  0  0  0  0  0  0
   -9.9372   -0.4748    0.0045 H   0  0  0  0  0  0  0  0  0  0  0  0
    2.5405   -1.6686   -0.0143 H   0  0  0  0  0  0  0  0  0  0  0  0
    4.7603   -2.7214   -0.0277 H   0  0  0  0  0  0  0  0  0  0  0  0
  1  2  1  0  0  0  0
  2  3  2  0  0  0  0
  3  4  1  0  0  0  0
  4  5  2  0  0  0  0
  5  6  1  0  0  0  0
  6  7  2  0  0  0  0
  6  8  1  0  0  0  0
  8  9  1  0  0  0  0
  9 10  1  0  0  0  0
 10 11  1  0  0  0  0
 11 12  1  0  0  0  0
 12 13  1  0  0  0  0
 13 14  1  0  0  0  0
 14 15  1  0  0  0  0
 15 16  1  0  0  0  0
  5 17  1  0  0  0  0
 17 18  2  0  0  0  0
  2 18  1  0  0  0  0
  1 19  1  0  0  0  0
  3 20  1  0  0  0  0
  4 21  1  0  0  0  0
  9 22  1  0  0  0  0
  9 23  1  0  0  0  0
 10 24  1  0  0  0  0
 10 25  1  0  0  0  0
 11 26  1  0  0  0  0
 11 27  1  0  0  0  0
 12 28  1  0  0  0  0
 12 29  1  0  0  0  0
 13 30  1  0  0  0  0
 13 31  1  0  0  0  0
 14 32  1  0  0  0  0
 14 33  1  0  0  0  0
 15 34  1  0  0  0  0
 15 35  1  0  0  0  0
 16 36  1  0  0  0  0
 16 37  1  0  0  0  0
 16 38  1  0  0  0  0
 17 39  1  0  0  0  0
 18 40  1  0  0  0  0
M  END
$$$$
