C12H16ClNOS
APtclcactv12111705003D 0   0.00000     0.00000
 
 32 32  0  0  0  0  0  0  0  0999 V2000
    2.6418    1.5134   -0.9152 C   0  0  0  0  0  0  0  0  0  0  0  0
    4.1036   -0.2740    0.6068 C   0  0  0  0  0  0  0  0  0  0  0  0
    3.9208    1.8394   -0.5036 C   0  0  0  0  0  0  0  0  0  0  0  0
    4.6514    0.9461    0.2571 C   0  0  0  0  0  0  0  0  0  0  0  0
    0.6991   -0.0614   -1.0153 C   0  0  0  0  0  0  0  0  0  0  0  0
   -3.2097    0.8603    1.3800 C   0  0  0  0  0  0  0  0  0  0  0  0
   -4.4208   -0.2566   -0.5499 C   0  0  0  0  0  0  0  0  0  0  0  0
   -3.3315    2.3700    1.1634 C   0  0  0  0  0  0  0  0  0  0  0  0
   -4.7455   -1.6829   -0.1014 C   0  0  0  0  0  0  0  0  0  0  0  0
    2.0931    0.2940   -0.5662 C   0  0  0  0  0  0  0  0  0  0  0  0
    2.8240   -0.6007    0.1953 C   0  0  0  0  0  0  0  0  0  0  0  0
   -1.9644   -0.6014   -1.6085 O   0  0  0  0  0  0  0  0  0  0  0  0
   -1.9940   -0.0383   -0.5309 C   0  0  0  0  0  0  0  0  0  0  0  0
    2.1356   -2.1329    0.6336 Cl  0  0  0  0  0  0  0  0  0  0  0  0
   -0.4944    0.4893    0.2290 S   0  0  0  0  0  0  0  0  0  0  0  0
   -3.1740    0.1821    0.0820 N   0  0  0  0  0  0  0  0  0  0  0  0
    0.4870    0.4301   -1.9648 H   0  0  0  0  0  0  0  0  0  0  0  0
    0.6219   -1.1415   -1.1400 H   0  0  0  0  0  0  0  0  0  0  0  0
    2.0697    2.2136   -1.5058 H   0  0  0  0  0  0  0  0  0  0  0  0
    4.6745   -0.9719    1.2012 H   0  0  0  0  0  0  0  0  0  0  0  0
    4.3493    2.7924   -0.7768 H   0  0  0  0  0  0  0  0  0  0  0  0
    5.6503    1.2015    0.5787 H   0  0  0  0  0  0  0  0  0  0  0  0
   -2.2925    0.6447    1.9280 H   0  0  0  0  0  0  0  0  0  0  0  0
   -4.0668    0.5051    1.9521 H   0  0  0  0  0  0  0  0  0  0  0  0
   -4.3066   -0.2337   -1.6336 H   0  0  0  0  0  0  0  0  0  0  0  0
   -5.2314    0.4102   -0.2558 H   0  0  0  0  0  0  0  0  0  0  0  0
   -3.3581    2.8747    2.1292 H   0  0  0  0  0  0  0  0  0  0  0  0
   -2.4744    2.7253    0.5913 H   0  0  0  0  0  0  0  0  0  0  0  0
   -4.2487    2.5856    0.6154 H   0  0  0  0  0  0  0  0  0  0  0  0
   -4.8597   -1.7058    0.9824 H   0  0  0  0  0  0  0  0  0  0  0  0
   -5.6732   -2.0093   -0.5715 H   0  0  0  0  0  0  0  0  0  0  0  0
   -3.9350   -2.3497   -0.3955 H   0  0  0  0  0  0  0  0  0  0  0  0
  5 10  1  0  0  0  0
 10 11  1  0  0  0  0
  1 10  2  0  0  0  0
  5 15  1  0  0  0  0
  2 11  2  0  0  0  0
 11 14  1  0  0  0  0
  1  3  1  0  0  0  0
 13 15  1  0  0  0  0
  2  4  1  0  0  0  0
 13 16  1  0  0  0  0
 12 13  2  0  0  0  0
  6 16  1  0  0  0  0
  7 16  1  0  0  0  0
  6  8  1  0  0  0  0
  7  9  1  0  0  0  0
  3  4  2  0  0  0  0
  5 17  1  0  0  0  0
  5 18  1  0  0  0  0
  1 19  1  0  0  0  0
  2 20  1  0  0  0  0
  3 21  1  0  0  0  0
  4 22  1  0  0  0  0
  6 23  1  0  0  0  0
  6 24  1  0  0  0  0
  7 25  1  0  0  0  0
  7 26  1  0  0  0  0
  8 27  1  0  0  0  0
  8 28  1  0  0  0  0
  8 29  1  0  0  0  0
  9 30  1  0  0  0  0
  9 31  1  0  0  0  0
  9 32  1  0  0  0  0
M  END
$$$$
