C7H9N3O3
APtclcactv12151716193D 0   0.00000     0.00000
 
 22 22  0  0  0  0  0  0  0  0999 V2000
   -3.7107    0.2128   -0.0001 C   0  0  0  0  0  0  0  0  0  0  0  0
   -4.5984   -1.0334   -0.0005 C   0  0  0  0  0  0  0  0  0  0  0  0
   -2.3024   -0.1909   -0.0005 N   0  0  0  0  0  0  0  0  0  0  0  0
   -1.3331    0.7455   -0.0003 C   0  0  0  0  0  0  0  0  0  0  0  0
    0.0928    0.3368   -0.0007 C   0  0  0  0  0  0  0  0  0  0  0  0
    1.0747    1.2756   -0.0004 C   0  0  0  0  0  0  0  0  0  0  0  0
    2.4715    0.8247   -0.0004 C   0  0  0  0  0  0  0  0  0  0  0  0
    3.3824    1.6315    0.0003 O   0  0  0  0  0  0  0  0  0  0  0  0
    2.7278   -0.4999   -0.0007 N   0  0  0  0  0  0  0  0  0  0  0  0
    1.7187   -1.3885   -0.0010 C   0  0  0  0  0  0  0  0  0  0  0  0
    1.9765   -2.5767   -0.0008 O   0  0  0  0  0  0  0  0  0  0  0  0
    0.4333   -0.9985    0.0043 N   0  0  0  0  0  0  0  0  0  0  0  0
   -1.6271    1.9242    0.0004 O   0  0  0  0  0  0  0  0  0  0  0  0
   -3.9186    0.8073   -0.8897 H   0  0  0  0  0  0  0  0  0  0  0  0
   -3.9183    0.8064    0.8902 H   0  0  0  0  0  0  0  0  0  0  0  0
   -4.3906   -1.6279    0.8891 H   0  0  0  0  0  0  0  0  0  0  0  0
   -5.6463   -0.7331   -0.0002 H   0  0  0  0  0  0  0  0  0  0  0  0
   -4.3909   -1.6270   -0.8909 H   0  0  0  0  0  0  0  0  0  0  0  0
   -2.0677   -1.1320   -0.0011 H   0  0  0  0  0  0  0  0  0  0  0  0
    0.8334    2.3282   -0.0006 H   0  0  0  0  0  0  0  0  0  0  0  0
    3.6458   -0.8132   -0.0010 H   0  0  0  0  0  0  0  0  0  0  0  0
   -0.2679   -1.6687    0.0039 H   0  0  0  0  0  0  0  0  0  0  0  0
  1  2  1  0  0  0  0
  1  3  1  0  0  0  0
  3  4  1  0  0  0  0
  4  5  1  0  0  0  0
  5  6  2  0  0  0  0
  6  7  1  0  0  0  0
  7  8  2  0  0  0  0
  7  9  1  0  0  0  0
  9 10  1  0  0  0  0
 10 11  2  0  0  0  0
 10 12  1  0  0  0  0
  5 12  1  0  0  0  0
  4 13  2  0  0  0  0
  1 14  1  0  0  0  0
  1 15  1  0  0  0  0
  2 16  1  0  0  0  0
  2 17  1  0  0  0  0
  2 18  1  0  0  0  0
  3 19  1  0  0  0  0
  6 20  1  0  0  0  0
  9 21  1  0  0  0  0
 12 22  1  0  0  0  0
M  END
$$$$
