C9H13N3O3
APtclcactv12151716493D 0   0.00000     0.00000
 
 28 28  0  0  0  0  0  0  0  0999 V2000
   -2.7741    0.6954    0.0000 C   0  0  0  0  0  0  0  0  0  0  0  0
   -3.7957   -0.4436   -0.0004 C   0  0  0  0  0  0  0  0  0  0  0  0
   -5.2101    0.1398    0.0001 C   0  0  0  0  0  0  0  0  0  0  0  0
   -6.2316   -0.9993   -0.0003 C   0  0  0  0  0  0  0  0  0  0  0  0
   -1.4198    0.1368   -0.0005 N   0  0  0  0  0  0  0  0  0  0  0  0
   -0.3518    0.9588   -0.0002 C   0  0  0  0  0  0  0  0  0  0  0  0
    1.0194    0.3932   -0.0007 C   0  0  0  0  0  0  0  0  0  0  0  0
    2.1002    1.2162   -0.0005 C   0  0  0  0  0  0  0  0  0  0  0  0
    3.4378    0.6120   -0.0005 C   0  0  0  0  0  0  0  0  0  0  0  0
    4.4332    1.3118    0.0002 O   0  0  0  0  0  0  0  0  0  0  0  0
    3.5443   -0.7330   -0.0007 N   0  0  0  0  0  0  0  0  0  0  0  0
    2.4421   -1.5032   -0.0009 C   0  0  0  0  0  0  0  0  0  0  0  0
    2.5654   -2.7128   -0.0007 O   0  0  0  0  0  0  0  0  0  0  0  0
    1.2084   -0.9718    0.0043 N   0  0  0  0  0  0  0  0  0  0  0  0
   -0.5121    2.1630    0.0004 O   0  0  0  0  0  0  0  0  0  0  0  0
   -2.9142    1.3094   -0.8896 H   0  0  0  0  0  0  0  0  0  0  0  0
   -2.9139    1.3085    0.8903 H   0  0  0  0  0  0  0  0  0  0  0  0
   -3.6558   -1.0568   -0.8907 H   0  0  0  0  0  0  0  0  0  0  0  0
   -3.6556   -1.0576    0.8892 H   0  0  0  0  0  0  0  0  0  0  0  0
   -5.3499    0.7529    0.8904 H   0  0  0  0  0  0  0  0  0  0  0  0
   -5.3501    0.7538   -0.8896 H   0  0  0  0  0  0  0  0  0  0  0  0
   -6.0915   -1.6133    0.8893 H   0  0  0  0  0  0  0  0  0  0  0  0
   -7.2392   -0.5836    0.0000 H   0  0  0  0  0  0  0  0  0  0  0  0
   -6.0918   -1.6124   -0.8906 H   0  0  0  0  0  0  0  0  0  0  0  0
   -1.2918   -0.8248   -0.0010 H   0  0  0  0  0  0  0  0  0  0  0  0
    1.9781    2.2893   -0.0006 H   0  0  0  0  0  0  0  0  0  0  0  0
    4.4215   -1.1470   -0.0010 H   0  0  0  0  0  0  0  0  0  0  0  0
    0.4366   -1.5594    0.0040 H   0  0  0  0  0  0  0  0  0  0  0  0
  1  2  1  0  0  0  0
  2  3  1  0  0  0  0
  3  4  1  0  0  0  0
  1  5  1  0  0  0  0
  5  6  1  0  0  0  0
  6  7  1  0  0  0  0
  7  8  2  0  0  0  0
  8  9  1  0  0  0  0
  9 10  2  0  0  0  0
  9 11  1  0  0  0  0
 11 12  1  0  0  0  0
 12 13  2  0  0  0  0
 12 14  1  0  0  0  0
  7 14  1  0  0  0  0
  6 15  2  0  0  0  0
  1 16  1  0  0  0  0
  1 17  1  0  0  0  0
  2 18  1  0  0  0  0
  2 19  1  0  0  0  0
  3 20  1  0  0  0  0
  3 21  1  0  0  0  0
  4 22  1  0  0  0  0
  4 23  1  0  0  0  0
  4 24  1  0  0  0  0
  5 25  1  0  0  0  0
  8 26  1  0  0  0  0
 11 27  1  0  0  0  0
 14 28  1  0  0  0  0
M  END
$$$$
