C11H15N3O3
APtclcactv12211717353D 0   0.00000     0.00000
 
 32 33  0  0  0  0  0  0  0  0999 V2000
   -2.4188    0.0838   -0.2971 C   0  0  0  0  0  0  0  0  0  0  0  0
   -3.2145   -1.1207   -0.8042 C   0  0  0  0  0  0  0  0  0  0  0  0
   -4.6899   -0.7380   -0.9369 C   0  0  0  0  0  0  0  0  0  0  0  0
   -5.2301   -0.3082    0.4285 C   0  0  0  0  0  0  0  0  0  0  0  0
   -4.4345    0.8963    0.9356 C   0  0  0  0  0  0  0  0  0  0  0  0
   -2.9591    0.5136    1.0683 C   0  0  0  0  0  0  0  0  0  0  0  0
   -1.0061   -0.2826   -0.1700 N   0  0  0  0  0  0  0  0  0  0  0  0
   -0.0543    0.6693   -0.2373 C   0  0  0  0  0  0  0  0  0  0  0  0
    1.3760    0.2983   -0.1087 C   0  0  0  0  0  0  0  0  0  0  0  0
    2.3403    1.2528   -0.1756 C   0  0  0  0  0  0  0  0  0  0  0  0
    3.7423    0.8394   -0.0426 C   0  0  0  0  0  0  0  0  0  0  0  0
    4.6378    1.6614   -0.0961 O   0  0  0  0  0  0  0  0  0  0  0  0
    4.0206   -0.4680    0.1405 N   0  0  0  0  0  0  0  0  0  0  0  0
    3.0284   -1.3735    0.1996 C   0  0  0  0  0  0  0  0  0  0  0  0
    3.3060   -2.5455    0.3657 O   0  0  0  0  0  0  0  0  0  0  0  0
    1.7383   -1.0170    0.0856 N   0  0  0  0  0  0  0  0  0  0  0  0
   -0.3680    1.8311   -0.4034 O   0  0  0  0  0  0  0  0  0  0  0  0
   -2.5183    0.9082   -1.0031 H   0  0  0  0  0  0  0  0  0  0  0  0
   -2.8296   -1.4269   -1.7769 H   0  0  0  0  0  0  0  0  0  0  0  0
   -3.1150   -1.9452   -0.0982 H   0  0  0  0  0  0  0  0  0  0  0  0
   -4.7893    0.0865   -1.6430 H   0  0  0  0  0  0  0  0  0  0  0  0
   -5.2567   -1.5961   -1.2982 H   0  0  0  0  0  0  0  0  0  0  0  0
   -6.2812   -0.0356    0.3339 H   0  0  0  0  0  0  0  0  0  0  0  0
   -5.1307   -1.1327    1.1345 H   0  0  0  0  0  0  0  0  0  0  0  0
   -4.5339    1.7207    0.2296 H   0  0  0  0  0  0  0  0  0  0  0  0
   -4.8193    1.2025    1.9083 H   0  0  0  0  0  0  0  0  0  0  0  0
   -2.8596   -0.3109    1.7743 H   0  0  0  0  0  0  0  0  0  0  0  0
   -2.3922    1.3717    1.4296 H   0  0  0  0  0  0  0  0  0  0  0  0
   -0.7557   -1.2103   -0.0374 H   0  0  0  0  0  0  0  0  0  0  0  0
    2.0815    2.2909   -0.3235 H   0  0  0  0  0  0  0  0  0  0  0  0
    4.9424   -0.7566    0.2298 H   0  0  0  0  0  0  0  0  0  0  0  0
    1.0498   -1.6986    0.1332 H   0  0  0  0  0  0  0  0  0  0  0  0
  1  2  1  0  0  0  0
  2  3  1  0  0  0  0
  3  4  1  0  0  0  0
  4  5  1  0  0  0  0
  5  6  1  0  0  0  0
  1  6  1  0  0  0  0
  1  7  1  0  0  0  0
  7  8  1  0  0  0  0
  8  9  1  0  0  0  0
  9 10  2  0  0  0  0
 10 11  1  0  0  0  0
 11 12  2  0  0  0  0
 11 13  1  0  0  0  0
 13 14  1  0  0  0  0
 14 15  2  0  0  0  0
 14 16  1  0  0  0  0
  9 16  1  0  0  0  0
  8 17  2  0  0  0  0
  1 18  1  0  0  0  0
  2 19  1  0  0  0  0
  2 20  1  0  0  0  0
  3 21  1  0  0  0  0
  3 22  1  0  0  0  0
  4 23  1  0  0  0  0
  4 24  1  0  0  0  0
  5 25  1  0  0  0  0
  5 26  1  0  0  0  0
  6 27  1  0  0  0  0
  6 28  1  0  0  0  0
  7 29  1  0  0  0  0
 10 30  1  0  0  0  0
 13 31  1  0  0  0  0
 16 32  1  0  0  0  0
M  END
$$$$
