C15H18Cl2N2O3
APtclcactv12211717083D 0   0.00000     0.00000
 
 40 41  0  0  0  0  0  0  0  0999 V2000
    1.2626   -0.5928   -0.0323 C   0  0  0  0  0  0  0  0  0  0  0  0
    1.7703    2.1343   -0.0242 C   0  0  0  0  0  0  0  0  0  0  0  0
   -4.6297    0.5950    1.7995 C   0  0  0  0  0  0  0  0  0  0  0  0
   -5.0701   -1.7525    1.0663 C   0  0  0  0  0  0  0  0  0  0  0  0
   -5.5816    0.1521   -0.4677 C   0  0  0  0  0  0  0  0  0  0  0  0
    4.5199   -3.1647   -0.3346 C   0  0  0  0  0  0  0  0  0  0  0  0
    2.7895   -2.9424    1.4539 C   0  0  0  0  0  0  0  0  0  0  0  0
    0.2165    0.3094   -0.1678 C   0  0  0  0  0  0  0  0  0  0  0  0
    0.4737    1.6750   -0.1634 C   0  0  0  0  0  0  0  0  0  0  0  0
    2.5608   -0.1291    0.1070 C   0  0  0  0  0  0  0  0  0  0  0  0
    2.8132    1.2365    0.1108 C   0  0  0  0  0  0  0  0  0  0  0  0
   -0.8865   -1.5582   -2.1102 O   0  0  0  0  0  0  0  0  0  0  0  0
    3.5871   -1.0107    0.2403 O   0  0  0  0  0  0  0  0  0  0  0  0
   -1.5482   -1.0264   -1.2383 C   0  0  0  0  0  0  0  0  0  0  0  0
   -3.2292   -0.4474    0.0384 C   0  0  0  0  0  0  0  0  0  0  0  0
    3.2718   -2.3981    0.1078 C   0  0  0  0  0  0  0  0  0  0  0  0
   -0.8335    2.8047   -0.3322 Cl  0  0  0  0  0  0  0  0  0  0  0  0
    4.4400    1.8171    0.2848 Cl  0  0  0  0  0  0  0  0  0  0  0  0
   -2.8618   -1.2002   -1.0173 O   0  0  0  0  0  0  0  0  0  0  0  0
   -4.6223   -0.3635    0.6070 C   0  0  0  0  0  0  0  0  0  0  0  0
   -1.0973   -0.1563   -0.3092 N   0  0  0  0  0  0  0  0  0  0  0  0
   -2.1988    0.1907    0.4871 N   0  0  0  0  0  0  0  0  0  0  0  0
    1.0644   -1.6544   -0.0309 H   0  0  0  0  0  0  0  0  0  0  0  0
    1.9689    3.1959   -0.0213 H   0  0  0  0  0  0  0  0  0  0  0  0
   -4.3106    1.5845    1.4723 H   0  0  0  0  0  0  0  0  0  0  0  0
   -5.6373    0.6556    2.2107 H   0  0  0  0  0  0  0  0  0  0  0  0
   -3.9463    0.2276    2.5651 H   0  0  0  0  0  0  0  0  0  0  0  0
   -4.3868   -2.1199    1.8319 H   0  0  0  0  0  0  0  0  0  0  0  0
   -6.0778   -1.6919    1.4775 H   0  0  0  0  0  0  0  0  0  0  0  0
   -5.0649   -2.4354    0.2167 H   0  0  0  0  0  0  0  0  0  0  0  0
   -5.5763   -0.5307   -1.3173 H   0  0  0  0  0  0  0  0  0  0  0  0
   -6.5892    0.2127   -0.0565 H   0  0  0  0  0  0  0  0  0  0  0  0
   -5.2625    1.1417   -0.7949 H   0  0  0  0  0  0  0  0  0  0  0  0
    2.4859   -2.5226   -0.6372 H   0  0  0  0  0  0  0  0  0  0  0  0
    5.3058   -3.0402    0.4103 H   0  0  0  0  0  0  0  0  0  0  0  0
    4.2794   -4.2230   -0.4358 H   0  0  0  0  0  0  0  0  0  0  0  0
    4.8635   -2.7769   -1.2936 H   0  0  0  0  0  0  0  0  0  0  0  0
    2.5490   -4.0008    1.3527 H   0  0  0  0  0  0  0  0  0  0  0  0
    3.5754   -2.8180    2.1988 H   0  0  0  0  0  0  0  0  0  0  0  0
    1.9004   -2.3963    1.7690 H   0  0  0  0  0  0  0  0  0  0  0  0
  8 21  1  0  0  0  0
 21 22  1  0  0  0  0
 14 21  1  0  0  0  0
  1  8  1  0  0  0  0
  8  9  2  0  0  0  0
 15 22  2  0  0  0  0
 14 19  1  0  0  0  0
 12 14  2  0  0  0  0
  1 10  2  0  0  0  0
  2  9  1  0  0  0  0
  9 17  1  0  0  0  0
 15 20  1  0  0  0  0
 10 11  1  0  0  0  0
 10 13  1  0  0  0  0
  3 20  1  0  0  0  0
  4 20  1  0  0  0  0
  5 20  1  0  0  0  0
 11 18  1  0  0  0  0
 13 16  1  0  0  0  0
  6 16  1  0  0  0  0
  7 16  1  0  0  0  0
 15 19  1  0  0  0  0
  2 11  2  0  0  0  0
  1 23  1  0  0  0  0
  2 24  1  0  0  0  0
  3 25  1  0  0  0  0
  3 26  1  0  0  0  0
  3 27  1  0  0  0  0
  4 28  1  0  0  0  0
  4 29  1  0  0  0  0
  4 30  1  0  0  0  0
  5 31  1  0  0  0  0
  5 32  1  0  0  0  0
  5 33  1  0  0  0  0
 16 34  1  0  0  0  0
  6 35  1  0  0  0  0
  6 36  1  0  0  0  0
  6 37  1  0  0  0  0
  7 38  1  0  0  0  0
  7 39  1  0  0  0  0
  7 40  1  0  0  0  0
M  END
$$$$
