C2H2O4
APtclcactv12101715333D 0   0.00000     0.00000
 
  8  7  0  0  0  0  0  0  0  0999 V2000
    0.7346    0.1363   -0.0017 C   0  0  0  0  0  0  0  0  0  0  0  0
   -0.7346   -0.1363   -0.0004 C   0  0  0  0  0  0  0  0  0  0  0  0
   -1.1392   -1.2793   -0.0012 O   0  0  0  0  0  0  0  0  0  0  0  0
   -1.6085    0.8867    0.0016 O   0  0  0  0  0  0  0  0  0  0  0  0
    1.1392    1.2793   -0.0009 O   0  0  0  0  0  0  0  0  0  0  0  0
    1.6085   -0.8867    0.0019 O   0  0  0  0  0  0  0  0  0  0  0  0
   -2.5488    0.6608    0.0023 H   0  0  0  0  0  0  0  0  0  0  0  0
    2.5488   -0.6608    0.0009 H   0  0  0  0  0  0  0  0  0  0  0  0
  1  2  1  0  0  0  0
  2  3  2  0  0  0  0
  2  4  1  0  0  0  0
  1  5  2  0  0  0  0
  1  6  1  0  0  0  0
  4  7  1  0  0  0  0
  6  8  1  0  0  0  0
M  END
$$$$
