C2H4N2O2
APtclcactv12101715343D 0   0.00000     0.00000
 
 10  9  0  0  0  0  0  0  0  0999 V2000
    1.6006    0.9056    0.0002 N   0  0  0  0  0  0  0  0  0  0  0  0
    0.7361   -0.1284    0.0001 C   0  0  0  0  0  0  0  0  0  0  0  0
    1.1533   -1.2680   -0.0000 O   0  0  0  0  0  0  0  0  0  0  0  0
   -0.7361    0.1284    0.0000 C   0  0  0  0  0  0  0  0  0  0  0  0
   -1.1533    1.2680    0.0001 O   0  0  0  0  0  0  0  0  0  0  0  0
   -1.6006   -0.9056   -0.0001 N   0  0  0  0  0  0  0  0  0  0  0  0
    2.5561    0.7389    0.0002 H   0  0  0  0  0  0  0  0  0  0  0  0
    1.2671    1.8165   -0.0038 H   0  0  0  0  0  0  0  0  0  0  0  0
   -1.2671   -1.8165   -0.0002 H   0  0  0  0  0  0  0  0  0  0  0  0
   -2.5561   -0.7389   -0.0001 H   0  0  0  0  0  0  0  0  0  0  0  0
  1  2  1  0  0  0  0
  2  3  2  0  0  0  0
  2  4  1  0  0  0  0
  4  5  2  0  0  0  0
  4  6  1  0  0  0  0
  1  7  1  0  0  0  0
  1  8  1  0  0  0  0
  6  9  1  0  0  0  0
  6 10  1  0  0  0  0
M  END
$$$$
