C8H7NO3
APtclcactv12151716273D 0   0.00000     0.00000
 
 19 19  0  0  0  0  0  0  0  0999 V2000
    2.7447   -0.1691   -0.0008 C   0  0  0  0  0  0  0  0  0  0  0  0
    1.3020    0.2146    0.0353 C   0  0  0  0  0  0  0  0  0  0  0  0
    0.9819    1.3438    0.3449 O   0  0  0  0  0  0  0  0  0  0  0  0
    0.3553   -0.6928   -0.2759 N   0  0  0  0  0  0  0  0  0  0  0  0
   -0.9966   -0.3634   -0.1493 C   0  0  0  0  0  0  0  0  0  0  0  0
   -1.4272    0.9285   -0.4246 C   0  0  0  0  0  0  0  0  0  0  0  0
   -2.7641    1.2506   -0.2984 C   0  0  0  0  0  0  0  0  0  0  0  0
   -3.6738    0.2891    0.1019 C   0  0  0  0  0  0  0  0  0  0  0  0
   -3.2486   -0.9978    0.3773 C   0  0  0  0  0  0  0  0  0  0  0  0
   -1.9142   -1.3285    0.2467 C   0  0  0  0  0  0  0  0  0  0  0  0
    3.0645   -1.2972   -0.3101 O   0  0  0  0  0  0  0  0  0  0  0  0
    3.6901    0.7383    0.3046 O   0  0  0  0  0  0  0  0  0  0  0  0
    0.6125   -1.5745   -0.5878 H   0  0  0  0  0  0  0  0  0  0  0  0
   -0.7171    1.6801   -0.7367 H   0  0  0  0  0  0  0  0  0  0  0  0
   -3.0995    2.2547   -0.5123 H   0  0  0  0  0  0  0  0  0  0  0  0
   -4.7188    0.5438    0.2002 H   0  0  0  0  0  0  0  0  0  0  0  0
   -3.9617   -1.7462    0.6900 H   0  0  0  0  0  0  0  0  0  0  0  0
   -1.5827   -2.3336    0.4619 H   0  0  0  0  0  0  0  0  0  0  0  0
    4.6102    0.4432    0.2673 H   0  0  0  0  0  0  0  0  0  0  0  0
  1  2  1  0  0  0  0
  2  3  2  0  0  0  0
  2  4  1  0  0  0  0
  4  5  1  0  0  0  0
  5  6  2  0  0  0  0
  6  7  1  0  0  0  0
  7  8  2  0  0  0  0
  8  9  1  0  0  0  0
  9 10  2  0  0  0  0
  5 10  1  0  0  0  0
  1 11  2  0  0  0  0
  1 12  1  0  0  0  0
  4 13  1  0  0  0  0
  6 14  1  0  0  0  0
  7 15  1  0  0  0  0
  8 16  1  0  0  0  0
  9 17  1  0  0  0  0
 10 18  1  0  0  0  0
 12 19  1  0  0  0  0
M  END
$$$$
