C18H15NO3
APtclcactv12211717163D 0   0.00000     0.00000
 
 37 39  0  0  0  0  0  0  0  0999 V2000
    1.3518    2.7890   -0.4905 C   0  0  0  0  0  0  0  0  0  0  0  0
    2.7093    1.2276    0.7500 C   0  0  0  0  0  0  0  0  0  0  0  0
    1.6785   -2.7716    0.6260 C   0  0  0  0  0  0  0  0  0  0  0  0
    2.4999   -1.1495   -0.9645 C   0  0  0  0  0  0  0  0  0  0  0  0
    2.4362    3.6351   -0.5998 C   0  0  0  0  0  0  0  0  0  0  0  0
    3.7866    2.0819    0.6337 C   0  0  0  0  0  0  0  0  0  0  0  0
    2.7857   -3.5578    0.3845 C   0  0  0  0  0  0  0  0  0  0  0  0
    3.6020   -1.9459   -1.1960 C   0  0  0  0  0  0  0  0  0  0  0  0
    3.6511    3.2830   -0.0394 C   0  0  0  0  0  0  0  0  0  0  0  0
    3.7456   -3.1467   -0.5235 C   0  0  0  0  0  0  0  0  0  0  0  0
   -3.1850   -0.0756    0.8055 C   0  0  0  0  0  0  0  0  0  0  0  0
   -3.9124    0.0203   -0.5371 C   0  0  0  0  0  0  0  0  0  0  0  0
    0.3215    0.6641    0.3081 C   0  0  0  0  0  0  0  0  0  0  0  0
    0.3449   -0.7115    0.2037 C   0  0  0  0  0  0  0  0  0  0  0  0
    1.4821    1.5769    0.1868 C   0  0  0  0  0  0  0  0  0  0  0  0
    1.5272   -1.5580   -0.0490 C   0  0  0  0  0  0  0  0  0  0  0  0
   -1.6962   -0.0515    0.5731 C   0  0  0  0  0  0  0  0  0  0  0  0
   -5.8358   -0.0890    0.8194 O   0  0  0  0  0  0  0  0  0  0  0  0
   -6.2443    0.0693   -1.3465 O   0  0  0  0  0  0  0  0  0  0  0  0
   -5.4012   -0.0038   -0.3047 C   0  0  0  0  0  0  0  0  0  0  0  0
   -7.1905    0.0502   -1.1477 H   0  0  0  0  0  0  0  0  0  0  0  0
   -0.9601    1.0210    0.5358 N   0  0  0  0  0  0  0  0  0  0  0  0
   -0.9274   -1.1312    0.3783 O   0  0  0  0  0  0  0  0  0  0  0  0
    0.4028    3.0668   -0.9248 H   0  0  0  0  0  0  0  0  0  0  0  0
    2.8164    0.2901    1.2754 H   0  0  0  0  0  0  0  0  0  0  0  0
    0.9281   -3.0956    1.3319 H   0  0  0  0  0  0  0  0  0  0  0  0
    2.3894   -0.2122   -1.4896 H   0  0  0  0  0  0  0  0  0  0  0  0
    2.3365    4.5741   -1.1241 H   0  0  0  0  0  0  0  0  0  0  0  0
    4.7374    1.8128    1.0696 H   0  0  0  0  0  0  0  0  0  0  0  0
   -3.4684    0.7691    1.4334 H   0  0  0  0  0  0  0  0  0  0  0  0
   -3.4602   -1.0060    1.3022 H   0  0  0  0  0  0  0  0  0  0  0  0
    2.9040   -4.4964    0.9056 H   0  0  0  0  0  0  0  0  0  0  0  0
    4.3549   -1.6314   -1.9036 H   0  0  0  0  0  0  0  0  0  0  0  0
    4.4973    3.9482   -0.1282 H   0  0  0  0  0  0  0  0  0  0  0  0
   -3.6372    0.9507   -1.0338 H   0  0  0  0  0  0  0  0  0  0  0  0
   -3.6289   -0.8244   -1.1651 H   0  0  0  0  0  0  0  0  0  0  0  0
    4.6109   -3.7659   -0.7081 H   0  0  0  0  0  0  0  0  0  0  0  0
 13 14  2  0  0  0  0
 13 15  1  0  0  0  0
 13 22  1  0  0  0  0
 14 16  1  0  0  0  0
 14 23  1  0  0  0  0
  1 15  1  0  0  0  0
  2 15  2  0  0  0  0
 17 22  2  0  0  0  0
  3 16  2  0  0  0  0
  4 16  1  0  0  0  0
  1  5  2  0  0  0  0
  2  6  1  0  0  0  0
 11 17  1  0  0  0  0
  3  7  1  0  0  0  0
  4  8  2  0  0  0  0
  5  9  1  0  0  0  0
 11 12  1  0  0  0  0
  7 10  2  0  0  0  0
 12 20  1  0  0  0  0
 19 20  1  0  0  0  0
 18 20  2  0  0  0  0
 17 23  1  0  0  0  0
  6  9  2  0  0  0  0
  8 10  1  0  0  0  0
  1 24  1  0  0  0  0
  2 25  1  0  0  0  0
  3 26  1  0  0  0  0
  4 27  1  0  0  0  0
  5 28  1  0  0  0  0
  6 29  1  0  0  0  0
 11 30  1  0  0  0  0
 11 31  1  0  0  0  0
  7 32  1  0  0  0  0
  8 33  1  0  0  0  0
  9 34  1  0  0  0  0
 12 35  1  0  0  0  0
 12 36  1  0  0  0  0
 10 37  1  0  0  0  0
 19 21  1  0  0  0  0
M  END
$$$$
