C15H11ClN2O2
APtclcactv12211717053D 0   0.00000     0.00000
 
 31 33  0  0  0  0  0  0  0  0999 V2000
   -0.1092    1.4374   -0.3075 C   0  0  0  0  0  0  0  0  0  0  0  0
    2.3847    1.3772    0.8859 C   0  0  0  0  0  0  0  0  0  0  0  0
   -2.6723   -1.5678   -0.8707 C   0  0  0  0  0  0  0  0  0  0  0  0
   -2.2903   -0.2908    1.1401 C   0  0  0  0  0  0  0  0  0  0  0  0
    1.8220    2.5806    0.5223 C   0  0  0  0  0  0  0  0  0  0  0  0
   -4.0315   -1.5133   -0.6394 C   0  0  0  0  0  0  0  0  0  0  0  0
   -3.6516   -0.2431    1.3606 C   0  0  0  0  0  0  0  0  0  0  0  0
   -4.5207   -0.8527    0.4734 C   0  0  0  0  0  0  0  0  0  0  0  0
    2.8101   -0.9813    1.9032 H   0  0  0  0  0  0  0  0  0  0  0  0
    1.5658   -1.3036   -2.7011 H   0  0  0  0  0  0  0  0  0  0  0  0
   -1.7911   -0.9552    0.0200 C   0  0  0  0  0  0  0  0  0  0  0  0
    0.5716    2.6109   -0.0753 C   0  0  0  0  0  0  0  0  0  0  0  0
    2.9708   -3.0778    0.7933 O   0  0  0  0  0  0  0  0  0  0  0  0
    2.0186   -1.2744   -1.8472 O   0  0  0  0  0  0  0  0  0  0  0  0
    1.5866   -2.2775   -0.9256 C   0  0  0  0  0  0  0  0  0  0  0  0
   -0.3306   -1.0105   -0.2223 C   0  0  0  0  0  0  0  0  0  0  0  0
    2.3417   -2.1324    0.3674 C   0  0  0  0  0  0  0  0  0  0  0  0
    0.4519    0.2037    0.0571 C   0  0  0  0  0  0  0  0  0  0  0  0
    1.7080    0.1769    0.6592 C   0  0  0  0  0  0  0  0  0  0  0  0
   -0.1356    4.1293   -0.5316 Cl  0  0  0  0  0  0  0  0  0  0  0  0
    2.3369   -0.9934    1.0566 N   0  0  0  0  0  0  0  0  0  0  0  0
    0.1581   -2.1161   -0.6605 N   0  0  0  0  0  0  0  0  0  0  0  0
   -1.0848    1.4664   -0.7698 H   0  0  0  0  0  0  0  0  0  0  0  0
    3.3594    1.3618    1.3508 H   0  0  0  0  0  0  0  0  0  0  0  0
   -2.2913   -2.0876   -1.7374 H   0  0  0  0  0  0  0  0  0  0  0  0
   -1.6129    0.1857    1.8332 H   0  0  0  0  0  0  0  0  0  0  0  0
    1.7702   -3.2652   -1.3485 H   0  0  0  0  0  0  0  0  0  0  0  0
    2.3553    3.5020    0.7039 H   0  0  0  0  0  0  0  0  0  0  0  0
   -4.7148   -1.9869   -1.3287 H   0  0  0  0  0  0  0  0  0  0  0  0
   -4.0394    0.2710    2.2275 H   0  0  0  0  0  0  0  0  0  0  0  0
   -5.5854   -0.8124    0.6500 H   0  0  0  0  0  0  0  0  0  0  0  0
 16 18  1  0  0  0  0
 18 19  2  0  0  0  0
  1 18  1  0  0  0  0
 11 16  1  0  0  0  0
 16 22  2  0  0  0  0
 19 21  1  0  0  0  0
  2 19  1  0  0  0  0
  1 12  2  0  0  0  0
  3 11  2  0  0  0  0
  4 11  1  0  0  0  0
 15 22  1  0  0  0  0
 17 21  1  0  0  0  0
  2  5  2  0  0  0  0
 12 20  1  0  0  0  0
  3  6  1  0  0  0  0
  4  7  2  0  0  0  0
 14 15  1  0  0  0  0
 13 17  2  0  0  0  0
  6  8  2  0  0  0  0
  5 12  1  0  0  0  0
 15 17  1  0  0  0  0
  7  8  1  0  0  0  0
  1 23  1  0  0  0  0
  9 21  1  0  0  0  0
  2 24  1  0  0  0  0
  3 25  1  0  0  0  0
  4 26  1  0  0  0  0
 15 27  1  0  0  0  0
  5 28  1  0  0  0  0
  6 29  1  0  0  0  0
  7 30  1  0  0  0  0
 10 14  1  0  0  0  0
  8 31  1  0  0  0  0
M  END
$$$$
