C18H22ClNO4
APtclcactv12211717173D 0   0.00000     0.00000
 
 46 48  0  0  1  0  0  0  0  0999 V2000
    1.5295    1.0779    0.5289 C   0  0  1  0  0  0  0  0  0  0  0  0
    0.3934    1.7115   -0.2574 C   0  0  2  0  0  0  0  0  0  0  0  0
   -0.9142    1.0777    0.2259 C   0  0  1  0  0  0  0  0  0  0  0  0
    2.9513    1.3701    0.0679 C   0  0  2  0  0  0  0  0  0  0  0  0
   17.1739   -0.0326    0.6458 H   0  3  0  0  0  0  0  0  0  0  0  0
   -1.7358    1.5618   -0.3021 H   0  0  0  0  0  0  0  0  0  0  0  0
    3.3964    2.1817    0.6435 H   0  0  0  0  0  0  0  0  0  0  0  0
    2.1540    0.8726    2.5802 H   0  0  0  0  0  0  0  0  0  0  0  0
    1.3581    2.4235    2.2022 H   0  0  0  0  0  0  0  0  0  0  0  0
    0.6433    0.3893   -1.9392 H   0  0  0  0  0  0  0  0  0  0  0  0
   -0.2623    1.8815   -2.3020 H   0  0  0  0  0  0  0  0  0  0  0  0
   -1.6992   -0.8541    0.6856 H   0  0  0  0  0  0  0  0  0  0  0  0
   -1.4433   -0.5582   -1.0403 H   0  0  0  0  0  0  0  0  0  0  0  0
    0.0115   -0.3168    2.3200 H   0  0  0  0  0  0  0  0  0  0  0  0
   -0.1661    0.9897    3.5136 H   0  0  0  0  0  0  0  0  0  0  0  0
    2.0467    1.9249   -3.2600 H   0  0  0  0  0  0  0  0  0  0  0  0
    1.7900    3.2154   -2.0640 H   0  0  0  0  0  0  0  0  0  0  0  0
   -2.4380   -0.1975    2.0839 H   0  0  0  0  0  0  0  0  0  0  0  0
   -3.1755    1.3146    1.5028 H   0  0  0  0  0  0  0  0  0  0  0  0
   -2.5417    1.2142    3.1630 H   0  0  0  0  0  0  0  0  0  0  0  0
   -0.3983   -3.1219   -0.3149 H   0  0  0  0  0  0  0  0  0  0  0  0
    1.8329   -4.1014   -0.3068 H   0  0  0  0  0  0  0  0  0  0  0  0
    3.7169   -4.5072   -1.2085 H   0  0  0  0  0  0  0  0  0  0  0  0
    3.6450   -4.7673    0.5509 H   0  0  0  0  0  0  0  0  0  0  0  0
    5.2201   -4.5882   -0.2587 H   0  0  0  0  0  0  0  0  0  0  0  0
    0.4622   -2.4862   -0.1670 C   0  0  0  0  0  0  0  0  0  0  0  0
    1.7341   -3.0344   -0.1723 C   0  0  0  0  0  0  0  0  0  0  0  0
   -2.3937    0.8905    2.1328 C   0  0  0  0  0  0  0  0  0  0  0  0
    4.1802   -4.2617   -0.2529 C   0  0  0  0  0  0  0  0  0  0  0  0
    2.8924   -2.2768   -0.0120 C   0  0  0  0  0  0  0  0  0  0  0  0
   -0.3378    3.5870   -0.4786 H   0  0  0  0  0  0  0  0  0  0  0  0
    0.5803    1.4614   -1.7528 C   0  0  0  0  0  0  0  0  0  0  0  0
    1.8761    2.1380   -2.2047 C   0  0  0  0  0  0  0  0  0  0  0  0
    4.0702    1.4074   -1.9770 O   0  0  0  0  0  0  0  0  0  0  0  0
    0.3646    3.1181   -0.0074 O   0  0  0  0  0  0  0  0  0  0  0  0
    4.1258   -2.8487   -0.0462 O   0  0  0  0  0  0  0  0  0  0  0  0
  -13.0401   -0.8045   -0.6244 Cl  0  5  0  0  0  0  0  0  0  0  0  0
    2.7299   -0.9010    0.1848 C   0  0  0  0  0  0  0  0  0  0  0  0
    3.0268    1.6234   -1.4088 C   0  0  0  0  0  0  0  0  0  0  0  0
    1.3485    1.3487    2.0211 C   0  0  0  0  0  0  0  0  0  0  0  0
   -1.0215   -0.4137   -0.0457 C   0  0  0  0  0  0  0  0  0  0  0  0
    0.0006    0.7640    2.4604 C   0  0  0  0  0  0  0  0  0  0  0  0
    3.6243    0.1008    0.3252 O   0  0  0  0  0  0  0  0  0  0  0  0
    0.2899   -1.1266    0.0266 C   0  0  0  0  0  0  0  0  0  0  0  0
   -1.0807    1.3488    1.6593 N   0  0  0  0  0  0  0  0  0  0  0  0
    1.4363   -0.4047    0.2662 C   0  0  0  0  0  0  0  0  0  0  0  0
  4 43  1  0  0  0  0
 38 43  1  0  0  0  0
  2 35  1  0  0  0  0
 31 35  1  0  0  0  0
 34 39  2  0  0  0  0
 30 36  1  0  0  0  0
 29 36  1  0  0  0  0
  3 45  1  0  0  0  0
 42 45  1  0  0  0  0
 28 45  1  0  0  0  0
  1  2  1  0  0  0  0
  1  4  1  0  0  0  0
  1 40  1  0  0  0  0
  1 46  1  0  0  0  0
  2  3  1  0  0  0  0
  2 32  1  0  0  0  0
  3 41  1  0  0  0  0
  3  6  1  0  0  0  0
  4 39  1  0  0  0  0
  4  7  1  0  0  0  0
 40 42  1  0  0  0  0
  8 40  1  0  0  0  0
  9 40  1  0  0  0  0
 44 46  2  0  0  0  0
 38 46  1  0  0  0  0
 32 33  1  0  0  0  0
 10 32  1  0  0  0  0
 11 32  1  0  0  0  0
 41 44  1  0  0  0  0
 12 41  1  0  0  0  0
 13 41  1  0  0  0  0
 14 42  1  0  0  0  0
 15 42  1  0  0  0  0
 26 44  1  0  0  0  0
 33 39  1  0  0  0  0
 16 33  1  0  0  0  0
 17 33  1  0  0  0  0
 30 38  2  0  0  0  0
 18 28  1  0  0  0  0
 19 28  1  0  0  0  0
 20 28  1  0  0  0  0
 26 27  2  0  0  0  0
 21 26  1  0  0  0  0
 27 30  1  0  0  0  0
 22 27  1  0  0  0  0
 23 29  1  0  0  0  0
 24 29  1  0  0  0  0
 25 29  1  0  0  0  0
M  CHG  2   5   1  37  -1
M  END
$$$$
