C13H6Cl5NO3
APtclcactv12141705303D 0   0.00000     0.00000
 
 28 29  0  0  0  0  0  0  0  0999 V2000
   -4.4535   -0.2766    0.1443 C   0  0  0  0  0  0  0  0  0  0  0  0
    2.4208    0.8612   -0.5974 C   0  0  0  0  0  0  0  0  0  0  0  0
    4.6914    0.2221   -0.1670 C   0  0  0  0  0  0  0  0  0  0  0  0
    0.2791   -0.8714    1.1487 H   0  0  0  0  0  0  0  0  0  0  0  0
   -1.4142   -2.8931   -0.7486 H   0  0  0  0  0  0  0  0  0  0  0  0
    2.3240   -2.9022    1.0716 H   0  0  0  0  0  0  0  0  0  0  0  0
   -1.7241   -0.0669   -0.3160 C   0  0  0  0  0  0  0  0  0  0  0  0
   -2.4216   -1.2112   -0.7256 C   0  0  0  0  0  0  0  0  0  0  0  0
   -2.4111    0.9686    0.3259 C   0  0  0  0  0  0  0  0  0  0  0  0
   -3.7858   -1.3063   -0.4908 C   0  0  0  0  0  0  0  0  0  0  0  0
   -3.7685    0.8572    0.5513 C   0  0  0  0  0  0  0  0  0  0  0  0
    1.9740   -0.1939    0.1846 C   0  0  0  0  0  0  0  0  0  0  0  0
    2.8944   -1.0441    0.7932 C   0  0  0  0  0  0  0  0  0  0  0  0
    4.2524   -0.8320    0.6148 C   0  0  0  0  0  0  0  0  0  0  0  0
    3.7776    1.0669   -0.7712 C   0  0  0  0  0  0  0  0  0  0  0  0
    0.1321    0.5412   -1.5929 O   0  0  0  0  0  0  0  0  0  0  0  0
   -1.7655   -2.2220   -1.3496 O   0  0  0  0  0  0  0  0  0  0  0  0
    2.4614   -2.0798    1.5614 O   0  0  0  0  0  0  0  0  0  0  0  0
   -0.2743    0.0447   -0.5598 C   0  0  0  0  0  0  0  0  0  0  0  0
   -1.5584    2.3911    0.8386 Cl  0  0  0  0  0  0  0  0  0  0  0  0
   -4.6553   -2.7217   -0.9954 Cl  0  0  0  0  0  0  0  0  0  0  0  0
   -4.6210    2.1429    1.3475 Cl  0  0  0  0  0  0  0  0  0  0  0  0
    5.4027   -1.8893    1.3715 Cl  0  0  0  0  0  0  0  0  0  0  0  0
    4.3349    2.3877   -1.7502 Cl  0  0  0  0  0  0  0  0  0  0  0  0
    0.6006   -0.4036    0.3622 N   0  0  0  0  0  0  0  0  0  0  0  0
   -5.5162   -0.3540    0.3205 H   0  0  0  0  0  0  0  0  0  0  0  0
    1.7093    1.5192   -1.0741 H   0  0  0  0  0  0  0  0  0  0  0  0
    5.7499    0.3860   -0.3051 H   0  0  0  0  0  0  0  0  0  0  0  0
  7 19  1  0  0  0  0
  7  8  2  0  0  0  0
  7  9  1  0  0  0  0
 19 25  1  0  0  0  0
 16 19  2  0  0  0  0
  8 10  1  0  0  0  0
  8 17  1  0  0  0  0
  9 11  2  0  0  0  0
  9 20  1  0  0  0  0
 12 25  1  0  0  0  0
  1 10  2  0  0  0  0
 10 21  1  0  0  0  0
 11 22  1  0  0  0  0
 12 13  1  0  0  0  0
  2 12  2  0  0  0  0
 13 14  2  0  0  0  0
 13 18  1  0  0  0  0
  2 15  1  0  0  0  0
  3 14  1  0  0  0  0
 14 23  1  0  0  0  0
 15 24  1  0  0  0  0
  1 11  1  0  0  0  0
  3 15  2  0  0  0  0
  4 25  1  0  0  0  0
  5 17  1  0  0  0  0
  1 26  1  0  0  0  0
  2 27  1  0  0  0  0
  6 18  1  0  0  0  0
  3 28  1  0  0  0  0
M  END
$$$$
