C17H16N2O4
APtclcactv12211717363D 0   0.00000     0.00000
 
 39 40  0  0  0  0  0  0  0  0999 V2000
   -6.5473    0.3151    0.5429 C   0  0  0  0  0  0  0  0  0  0  0  0
   -8.0184    0.6423    0.5517 C   0  0  0  0  0  0  0  0  0  0  0  0
   -5.9243    0.3057    1.5781 O   0  0  0  0  0  0  0  0  0  0  0  0
   -5.9304    0.0285   -0.6145 O   0  0  0  0  0  0  0  0  0  0  0  0
   -4.5863   -0.1709   -0.5647 C   0  0  0  0  0  0  0  0  0  0  0  0
   -4.0803   -1.3649   -0.0714 C   0  0  0  0  0  0  0  0  0  0  0  0
   -2.7156   -1.5681   -0.0205 C   0  0  0  0  0  0  0  0  0  0  0  0
   -1.8494   -0.5769   -0.4632 C   0  0  0  0  0  0  0  0  0  0  0  0
   -2.3566    0.6180   -0.9568 C   0  0  0  0  0  0  0  0  0  0  0  0
   -3.7217    0.8175   -1.0124 C   0  0  0  0  0  0  0  0  0  0  0  0
   -0.4656   -0.7820   -0.4115 N   0  0  0  0  0  0  0  0  0  0  0  0
    0.3582    0.2473   -0.1313 C   0  0  0  0  0  0  0  0  0  0  0  0
    1.8062    0.0113    0.0276 C   0  0  0  0  0  0  0  0  0  0  0  0
    2.6619    1.0774    0.3182 C   0  0  0  0  0  0  0  0  0  0  0  0
    4.0121    0.8537    0.4662 C   0  0  0  0  0  0  0  0  0  0  0  0
    4.5253   -0.4320    0.3265 C   0  0  0  0  0  0  0  0  0  0  0  0
    3.6763   -1.4957    0.0372 C   0  0  0  0  0  0  0  0  0  0  0  0
    2.3242   -1.2799   -0.1065 C   0  0  0  0  0  0  0  0  0  0  0  0
    5.8936   -0.6550    0.4762 N   0  0  0  0  0  0  0  0  0  0  0  0
    6.7777    0.2661    0.0443 C   0  0  0  0  0  0  0  0  0  0  0  0
    8.2560   -0.0183    0.1124 C   0  0  0  0  0  0  0  0  0  0  0  0
    6.3835    1.3238   -0.3992 O   0  0  0  0  0  0  0  0  0  0  0  0
   -0.0917    1.3704   -0.0094 O   0  0  0  0  0  0  0  0  0  0  0  0
   -8.3402    0.8409    1.5740 H   0  0  0  0  0  0  0  0  0  0  0  0
   -8.1981    1.5239   -0.0636 H   0  0  0  0  0  0  0  0  0  0  0  0
   -8.5807   -0.2011    0.1511 H   0  0  0  0  0  0  0  0  0  0  0  0
   -4.7541   -2.1354    0.2731 H   0  0  0  0  0  0  0  0  0  0  0  0
   -2.3219   -2.4974    0.3638 H   0  0  0  0  0  0  0  0  0  0  0  0
   -1.6836    1.3892   -1.3013 H   0  0  0  0  0  0  0  0  0  0  0  0
   -4.1164    1.7466   -1.3962 H   0  0  0  0  0  0  0  0  0  0  0  0
   -0.0996   -1.6648   -0.5774 H   0  0  0  0  0  0  0  0  0  0  0  0
    2.2643    2.0758    0.4261 H   0  0  0  0  0  0  0  0  0  0  0  0
    4.6739    1.6771    0.6908 H   0  0  0  0  0  0  0  0  0  0  0  0
    4.0779   -2.4924   -0.0710 H   0  0  0  0  0  0  0  0  0  0  0  0
    1.6657   -2.1060   -0.3307 H   0  0  0  0  0  0  0  0  0  0  0  0
    6.2092   -1.4729    0.8912 H   0  0  0  0  0  0  0  0  0  0  0  0
    8.4161   -1.0098    0.5359 H   0  0  0  0  0  0  0  0  0  0  0  0
    8.6802    0.0210   -0.8909 H   0  0  0  0  0  0  0  0  0  0  0  0
    8.7410    0.7281    0.7415 H   0  0  0  0  0  0  0  0  0  0  0  0
  1  2  1  0  0  0  0
  1  3  2  0  0  0  0
  1  4  1  0  0  0  0
  4  5  1  0  0  0  0
  5  6  2  0  0  0  0
  6  7  1  0  0  0  0
  7  8  2  0  0  0  0
  8  9  1  0  0  0  0
  9 10  2  0  0  0  0
  5 10  1  0  0  0  0
  8 11  1  0  0  0  0
 11 12  1  0  0  0  0
 12 13  1  0  0  0  0
 13 14  2  0  0  0  0
 14 15  1  0  0  0  0
 15 16  2  0  0  0  0
 16 17  1  0  0  0  0
 17 18  2  0  0  0  0
 13 18  1  0  0  0  0
 16 19  1  0  0  0  0
 19 20  1  0  0  0  0
 20 21  1  0  0  0  0
 20 22  2  0  0  0  0
 12 23  2  0  0  0  0
  2 24  1  0  0  0  0
  2 25  1  0  0  0  0
  2 26  1  0  0  0  0
  6 27  1  0  0  0  0
  7 28  1  0  0  0  0
  9 29  1  0  0  0  0
 10 30  1  0  0  0  0
 11 31  1  0  0  0  0
 14 32  1  0  0  0  0
 15 33  1  0  0  0  0
 17 34  1  0  0  0  0
 18 35  1  0  0  0  0
 19 36  1  0  0  0  0
 21 37  1  0  0  0  0
 21 38  1  0  0  0  0
 21 39  1  0  0  0  0
M  END
$$$$
