C18H27NO3
APtclcactv12211717183D 0   0.00000     0.00000
 
 49 49  0  0  0  0  0  0  0  0999 V2000
    0.3397   -0.7420    0.2654 C   0  0  0  0  0  0  0  0  0  0  0  0
   -1.0427   -1.2735    0.5436 C   0  0  0  0  0  0  0  0  0  0  0  0
   -2.0841   -0.2496    0.0874 C   0  0  0  0  0  0  0  0  0  0  0  0
   -3.4877   -0.7892    0.3699 C   0  0  0  0  0  0  0  0  0  0  0  0
   -4.5291    0.2347   -0.0862 C   0  0  0  0  0  0  0  0  0  0  0  0
   -5.9326   -0.3049    0.1963 C   0  0  0  0  0  0  0  0  0  0  0  0
   -6.9740    0.7190   -0.2599 C   0  0  0  0  0  0  0  0  0  0  0  0
   -8.3775    0.1794    0.0226 C   0  0  0  0  0  0  0  0  0  0  0  0
   -9.4189    1.2033   -0.4336 C   0  0  0  0  0  0  0  0  0  0  0  0
  -10.8225    0.6637   -0.1511 C   0  0  0  0  0  0  0  0  0  0  0  0
    0.4779    0.3443   -0.2454 O   0  0  0  0  0  0  0  0  0  0  0  0
    1.4178   -1.4731    0.5900 O   0  0  0  0  0  0  0  0  0  0  0  0
    2.6308   -0.9816    0.2213 C   0  0  0  0  0  0  0  0  0  0  0  0
    3.1903    0.0791    0.9188 C   0  0  0  0  0  0  0  0  0  0  0  0
    4.4220    0.5787    0.5448 C   0  0  0  0  0  0  0  0  0  0  0  0
    5.1007    0.0191   -0.5296 C   0  0  0  0  0  0  0  0  0  0  0  0
    4.5401   -1.0426   -1.2273 C   0  0  0  0  0  0  0  0  0  0  0  0
    3.3109   -1.5449   -0.8488 C   0  0  0  0  0  0  0  0  0  0  0  0
    6.3499    0.5256   -0.9098 N   0  0  0  0  0  0  0  0  0  0  0  0
    7.2057    0.9811    0.0266 C   0  0  0  0  0  0  0  0  0  0  0  0
    8.5883    1.4301   -0.3709 C   0  0  0  0  0  0  0  0  0  0  0  0
    6.8631    1.0296    1.1891 O   0  0  0  0  0  0  0  0  0  0  0  0
   -1.1891   -2.2072    0.0006 H   0  0  0  0  0  0  0  0  0  0  0  0
   -1.1544   -1.4536    1.6128 H   0  0  0  0  0  0  0  0  0  0  0  0
   -1.9377    0.6841    0.6304 H   0  0  0  0  0  0  0  0  0  0  0  0
   -1.9725   -0.0695   -0.9818 H   0  0  0  0  0  0  0  0  0  0  0  0
   -3.6341   -1.7229   -0.1731 H   0  0  0  0  0  0  0  0  0  0  0  0
   -3.5993   -0.9693    1.4391 H   0  0  0  0  0  0  0  0  0  0  0  0
   -4.3827    1.1684    0.4568 H   0  0  0  0  0  0  0  0  0  0  0  0
   -4.4174    0.4148   -1.1554 H   0  0  0  0  0  0  0  0  0  0  0  0
   -6.0790   -1.2386   -0.3467 H   0  0  0  0  0  0  0  0  0  0  0  0
   -6.0442   -0.4850    1.2655 H   0  0  0  0  0  0  0  0  0  0  0  0
   -6.8276    1.6527    0.2831 H   0  0  0  0  0  0  0  0  0  0  0  0
   -6.8624    0.8991   -1.3291 H   0  0  0  0  0  0  0  0  0  0  0  0
   -8.5239   -0.7543   -0.5204 H   0  0  0  0  0  0  0  0  0  0  0  0
   -8.4892   -0.0007    1.0918 H   0  0  0  0  0  0  0  0  0  0  0  0
   -9.2725    2.1370    0.1094 H   0  0  0  0  0  0  0  0  0  0  0  0
   -9.3073    1.3834   -1.5028 H   0  0  0  0  0  0  0  0  0  0  0  0
  -10.9689   -0.2700   -0.6941 H   0  0  0  0  0  0  0  0  0  0  0  0
  -10.9341    0.4836    0.9181 H   0  0  0  0  0  0  0  0  0  0  0  0
  -11.5644    1.3932   -0.4761 H   0  0  0  0  0  0  0  0  0  0  0  0
    2.6622    0.5145    1.7542 H   0  0  0  0  0  0  0  0  0  0  0  0
    4.8573    1.4046    1.0877 H   0  0  0  0  0  0  0  0  0  0  0  0
    5.0674   -1.4783   -2.0631 H   0  0  0  0  0  0  0  0  0  0  0  0
    2.8750   -2.3708   -1.3911 H   0  0  0  0  0  0  0  0  0  0  0  0
    6.5992    0.5486   -1.8469 H   0  0  0  0  0  0  0  0  0  0  0  0
    8.7125    1.3141   -1.4475 H   0  0  0  0  0  0  0  0  0  0  0  0
    8.7219    2.4775   -0.1005 H   0  0  0  0  0  0  0  0  0  0  0  0
    9.3305    0.8234    0.1479 H   0  0  0  0  0  0  0  0  0  0  0  0
  1  2  1  0  0  0  0
  2  3  1  0  0  0  0
  3  4  1  0  0  0  0
  4  5  1  0  0  0  0
  5  6  1  0  0  0  0
  6  7  1  0  0  0  0
  7  8  1  0  0  0  0
  8  9  1  0  0  0  0
  9 10  1  0  0  0  0
  1 11  2  0  0  0  0
  1 12  1  0  0  0  0
 12 13  1  0  0  0  0
 13 14  2  0  0  0  0
 14 15  1  0  0  0  0
 15 16  2  0  0  0  0
 16 17  1  0  0  0  0
 17 18  2  0  0  0  0
 13 18  1  0  0  0  0
 16 19  1  0  0  0  0
 19 20  1  0  0  0  0
 20 21  1  0  0  0  0
 20 22  2  0  0  0  0
  2 23  1  0  0  0  0
  2 24  1  0  0  0  0
  3 25  1  0  0  0  0
  3 26  1  0  0  0  0
  4 27  1  0  0  0  0
  4 28  1  0  0  0  0
  5 29  1  0  0  0  0
  5 30  1  0  0  0  0
  6 31  1  0  0  0  0
  6 32  1  0  0  0  0
  7 33  1  0  0  0  0
  7 34  1  0  0  0  0
  8 35  1  0  0  0  0
  8 36  1  0  0  0  0
  9 37  1  0  0  0  0
  9 38  1  0  0  0  0
 10 39  1  0  0  0  0
 10 40  1  0  0  0  0
 10 41  1  0  0  0  0
 14 42  1  0  0  0  0
 15 43  1  0  0  0  0
 17 44  1  0  0  0  0
 18 45  1  0  0  0  0
 19 46  1  0  0  0  0
 21 47  1  0  0  0  0
 21 48  1  0  0  0  0
 21 49  1  0  0  0  0
M  END
$$$$
