C7H7NO2
APtclcactv12151716173D 0   0.00000     0.00000
 
 17 17  0  0  0  0  0  0  0  0999 V2000
    3.5400   -0.0516    0.0012 N   0  0  0  0  0  0  0  0  0  0  0  0
    2.1503   -0.0229    0.0008 C   0  0  0  0  0  0  0  0  0  0  0  0
    1.4807    1.1980   -0.0003 C   0  0  0  0  0  0  0  0  0  0  0  0
    0.1100    1.2299   -0.0002 C   0  0  0  0  0  0  0  0  0  0  0  0
   -0.6157    0.0343    0.0006 C   0  0  0  0  0  0  0  0  0  0  0  0
   -2.0892    0.0648    0.0002 C   0  0  0  0  0  0  0  0  0  0  0  0
   -2.6749    1.1295   -0.0008 O   0  0  0  0  0  0  0  0  0  0  0  0
   -2.7870   -1.0881    0.0009 O   0  0  0  0  0  0  0  0  0  0  0  0
    0.0600   -1.1902    0.0012 C   0  0  0  0  0  0  0  0  0  0  0  0
    1.4308   -1.2150   -0.0042 C   0  0  0  0  0  0  0  0  0  0  0  0
    4.0423    0.7783    0.0006 H   0  0  0  0  0  0  0  0  0  0  0  0
    4.0076   -0.9015    0.0060 H   0  0  0  0  0  0  0  0  0  0  0  0
    2.0417    2.1209   -0.0009 H   0  0  0  0  0  0  0  0  0  0  0  0
   -0.4087    2.1772   -0.0004 H   0  0  0  0  0  0  0  0  0  0  0  0
   -3.7514   -1.0176    0.0006 H   0  0  0  0  0  0  0  0  0  0  0  0
   -0.4975   -2.1152    0.0021 H   0  0  0  0  0  0  0  0  0  0  0  0
    1.9532   -2.1602   -0.0040 H   0  0  0  0  0  0  0  0  0  0  0  0
  1  2  1  0  0  0  0
  2  3  2  0  0  0  0
  3  4  1  0  0  0  0
  4  5  2  0  0  0  0
  5  6  1  0  0  0  0
  6  7  2  0  0  0  0
  6  8  1  0  0  0  0
  5  9  1  0  0  0  0
  9 10  2  0  0  0  0
  2 10  1  0  0  0  0
  1 11  1  0  0  0  0
  1 12  1  0  0  0  0
  3 13  1  0  0  0  0
  4 14  1  0  0  0  0
  8 15  1  0  0  0  0
  9 16  1  0  0  0  0
 10 17  1  0  0  0  0
M  END
$$$$
