C7H9NO
APtclcactv12151716193D 0   0.00000     0.00000
 
 18 18  0  0  0  0  0  0  0  0999 V2000
   -3.1253    0.6273    0.0013 C   0  0  0  0  0  0  0  0  0  0  0  0
   -2.2849   -0.5284    0.0002 O   0  0  0  0  0  0  0  0  0  0  0  0
   -0.9417   -0.3150    0.0006 C   0  0  0  0  0  0  0  0  0  0  0  0
   -0.0687   -1.3928   -0.0004 C   0  0  0  0  0  0  0  0  0  0  0  0
    1.2955   -1.1771   -0.0005 C   0  0  0  0  0  0  0  0  0  0  0  0
    1.7929    0.1194    0.0003 C   0  0  0  0  0  0  0  0  0  0  0  0
    0.9182    1.1978    0.0013 C   0  0  0  0  0  0  0  0  0  0  0  0
   -0.4457    0.9802   -0.0039 C   0  0  0  0  0  0  0  0  0  0  0  0
    3.1750    0.3389    0.0007 N   0  0  0  0  0  0  0  0  0  0  0  0
   -2.9234    1.2242   -0.8881 H   0  0  0  0  0  0  0  0  0  0  0  0
   -4.1702    0.3167    0.0009 H   0  0  0  0  0  0  0  0  0  0  0  0
   -2.9236    1.2225    0.8918 H   0  0  0  0  0  0  0  0  0  0  0  0
   -0.4558   -2.4011   -0.0007 H   0  0  0  0  0  0  0  0  0  0  0  0
    1.9751   -2.0164   -0.0009 H   0  0  0  0  0  0  0  0  0  0  0  0
    1.3042    2.2065    0.0020 H   0  0  0  0  0  0  0  0  0  0  0  0
   -1.1262    1.8189   -0.0036 H   0  0  0  0  0  0  0  0  0  0  0  0
    3.7858   -0.4146    0.0003 H   0  0  0  0  0  0  0  0  0  0  0  0
    3.5222    1.2447    0.0013 H   0  0  0  0  0  0  0  0  0  0  0  0
  1  2  1  0  0  0  0
  2  3  1  0  0  0  0
  3  4  2  0  0  0  0
  4  5  1  0  0  0  0
  5  6  2  0  0  0  0
  6  7  1  0  0  0  0
  7  8  2  0  0  0  0
  3  8  1  0  0  0  0
  6  9  1  0  0  0  0
  1 10  1  0  0  0  0
  1 11  1  0  0  0  0
  1 12  1  0  0  0  0
  4 13  1  0  0  0  0
  5 14  1  0  0  0  0
  7 15  1  0  0  0  0
  8 16  1  0  0  0  0
  9 17  1  0  0  0  0
  9 18  1  0  0  0  0
M  END
$$$$
