C13H12O
APtclcactv12071713253D 0   0.00000     0.00000
 
 26 27  0  0  0  0  0  0  0  0999 V2000
   -0.5666   -0.0002   -1.6374 C   0  0  0  0  0  0  0  0  0  0  0  0
   -1.7067    0.0001   -0.6518 C   0  0  0  0  0  0  0  0  0  0  0  0
   -2.2295    1.1974   -0.2000 C   0  0  0  0  0  0  0  0  0  0  0  0
   -3.2753    1.1976    0.7040 C   0  0  0  0  0  0  0  0  0  0  0  0
   -3.7986    0.0006    1.1559 C   0  0  0  0  0  0  0  0  0  0  0  0
   -3.2764   -1.1967    0.7033 C   0  0  0  0  0  0  0  0  0  0  0  0
   -2.2335   -1.1969   -0.2040 C   0  0  0  0  0  0  0  0  0  0  0  0
    0.7426   -0.0002   -0.8910 C   0  0  0  0  0  0  0  0  0  0  0  0
    1.3420   -1.1983   -0.5490 C   0  0  0  0  0  0  0  0  0  0  0  0
    2.5421   -1.2010    0.1353 C   0  0  0  0  0  0  0  0  0  0  0  0
    3.1458   -0.0003    0.4792 C   0  0  0  0  0  0  0  0  0  0  0  0
    2.5423    1.2005    0.1349 C   0  0  0  0  0  0  0  0  0  0  0  0
    1.3451    1.1978   -0.5543 C   0  0  0  0  0  0  0  0  0  0  0  0
    4.3262   -0.0003    1.1527 O   0  0  0  0  0  0  0  0  0  0  0  0
   -0.6279   -0.8903   -2.2635 H   0  0  0  0  0  0  0  0  0  0  0  0
   -0.6277    0.8897   -2.2638 H   0  0  0  0  0  0  0  0  0  0  0  0
   -1.8206    2.1326   -0.5531 H   0  0  0  0  0  0  0  0  0  0  0  0
   -3.6832    2.1330    1.0575 H   0  0  0  0  0  0  0  0  0  0  0  0
   -4.6151    0.0008    1.8627 H   0  0  0  0  0  0  0  0  0  0  0  0
   -3.6850   -2.1319    1.0566 H   0  0  0  0  0  0  0  0  0  0  0  0
   -1.8255   -2.1323   -0.5575 H   0  0  0  0  0  0  0  0  0  0  0  0
    0.8714   -2.1328   -0.8166 H   0  0  0  0  0  0  0  0  0  0  0  0
    3.0097   -2.1371    0.4025 H   0  0  0  0  0  0  0  0  0  0  0  0
    3.0104    2.1366    0.4015 H   0  0  0  0  0  0  0  0  0  0  0  0
    0.8749    2.1324   -0.8226 H   0  0  0  0  0  0  0  0  0  0  0  0
    5.1056   -0.0006    0.5803 H   0  0  0  0  0  0  0  0  0  0  0  0
  1  2  1  0  0  0  0
  2  3  2  0  0  0  0
  3  4  1  0  0  0  0
  4  5  2  0  0  0  0
  5  6  1  0  0  0  0
  6  7  2  0  0  0  0
  2  7  1  0  0  0  0
  1  8  1  0  0  0  0
  8  9  2  0  0  0  0
  9 10  1  0  0  0  0
 10 11  2  0  0  0  0
 11 12  1  0  0  0  0
 12 13  2  0  0  0  0
  8 13  1  0  0  0  0
 11 14  1  0  0  0  0
  1 15  1  0  0  0  0
  1 16  1  0  0  0  0
  3 17  1  0  0  0  0
  4 18  1  0  0  0  0
  5 19  1  0  0  0  0
  6 20  1  0  0  0  0
  7 21  1  0  0  0  0
  9 22  1  0  0  0  0
 10 23  1  0  0  0  0
 12 24  1  0  0  0  0
 13 25  1  0  0  0  0
 14 26  1  0  0  0  0
M  END
$$$$
