C6H6BrNO3S
APtclcactv12211716523D 0   0.00000     0.00000
 
 18 18  0  0  0  0  0  0  0  0999 V2000
   -3.0527    0.4632   -0.0081 Br  0  0  0  0  0  0  0  0  0  0  0  0
   -1.3628   -0.3854   -0.0008 C   0  0  0  0  0  0  0  0  0  0  0  0
   -0.2077    0.3763    0.0167 C   0  0  0  0  0  0  0  0  0  0  0  0
    1.0277   -0.2406    0.0216 C   0  0  0  0  0  0  0  0  0  0  0  0
    1.1102   -1.6273    0.0095 C   0  0  0  0  0  0  0  0  0  0  0  0
    2.3588   -2.2543    0.0150 N   0  0  0  0  0  0  0  0  0  0  0  0
   -0.0509   -2.3892   -0.0075 C   0  0  0  0  0  0  0  0  0  0  0  0
   -1.2839   -1.7665   -0.0071 C   0  0  0  0  0  0  0  0  0  0  0  0
    2.4980    0.7302    0.0427 S   0  0  0  0  0  0  0  0  0  0  0  0
    2.7369    1.0672    1.4024 O   0  0  0  0  0  0  0  0  0  0  0  0
    3.4438    0.0435   -0.7655 O   0  0  0  0  0  0  0  0  0  0  0  0
    2.1864    2.0355   -0.6752 O   0  0  0  0  0  0  0  0  0  0  0  0
   -0.2724    1.4543    0.0261 H   0  0  0  0  0  0  0  0  0  0  0  0
    3.1692   -1.7213    0.0272 H   0  0  0  0  0  0  0  0  0  0  0  0
    2.4153   -3.2226    0.0065 H   0  0  0  0  0  0  0  0  0  0  0  0
    0.0102   -3.4674   -0.0174 H   0  0  0  0  0  0  0  0  0  0  0  0
   -2.1871   -2.3585   -0.0204 H   0  0  0  0  0  0  0  0  0  0  0  0
    2.9337    2.6476   -0.7206 H   0  0  0  0  0  0  0  0  0  0  0  0
  1  2  1  0  0  0  0
  2  3  1  0  0  0  0
  3  4  2  0  0  0  0
  4  5  1  0  0  0  0
  5  6  1  0  0  0  0
  5  7  2  0  0  0  0
  7  8  1  0  0  0  0
  2  8  2  0  0  0  0
  4  9  1  0  0  0  0
  9 10  2  0  0  0  0
  9 11  2  0  0  0  0
  9 12  1  0  0  0  0
  3 13  1  0  0  0  0
  6 14  1  0  0  0  0
  6 15  1  0  0  0  0
  7 16  1  0  0  0  0
  8 17  1  0  0  0  0
 12 18  1  0  0  0  0
M  END
$$$$
