C7H5BrO2
APtclcactv12151716123D 0   0.00000     0.00000
 
 15 15  0  0  0  0  0  0  0  0999 V2000
   -2.7232   -0.0163   -0.0003 Br  0  0  0  0  0  0  0  0  0  0  0  0
   -0.8323    0.0052   -0.0006 C   0  0  0  0  0  0  0  0  0  0  0  0
   -0.1565    1.2140    0.0005 C   0  0  0  0  0  0  0  0  0  0  0  0
    1.2222    1.2365    0.0003 C   0  0  0  0  0  0  0  0  0  0  0  0
    1.9372    0.0368   -0.0005 C   0  0  0  0  0  0  0  0  0  0  0  0
    3.4138    0.0537   -0.0002 C   0  0  0  0  0  0  0  0  0  0  0  0
    4.0092    1.1125    0.0007 O   0  0  0  0  0  0  0  0  0  0  0  0
    4.1007   -1.1053   -0.0010 O   0  0  0  0  0  0  0  0  0  0  0  0
    1.2498   -1.1789   -0.0011 C   0  0  0  0  0  0  0  0  0  0  0  0
   -0.1292   -1.1879    0.0039 C   0  0  0  0  0  0  0  0  0  0  0  0
   -0.7106    2.1411    0.0011 H   0  0  0  0  0  0  0  0  0  0  0  0
    1.7480    2.1799    0.0004 H   0  0  0  0  0  0  0  0  0  0  0  0
    5.0657   -1.0436   -0.0008 H   0  0  0  0  0  0  0  0  0  0  0  0
    1.7970   -2.1100   -0.0018 H   0  0  0  0  0  0  0  0  0  0  0  0
   -0.6619   -2.1273    0.0038 H   0  0  0  0  0  0  0  0  0  0  0  0
  1  2  1  0  0  0  0
  2  3  2  0  0  0  0
  3  4  1  0  0  0  0
  4  5  2  0  0  0  0
  5  6  1  0  0  0  0
  6  7  2  0  0  0  0
  6  8  1  0  0  0  0
  5  9  1  0  0  0  0
  9 10  2  0  0  0  0
  2 10  1  0  0  0  0
  3 11  1  0  0  0  0
  4 12  1  0  0  0  0
  8 13  1  0  0  0  0
  9 14  1  0  0  0  0
 10 15  1  0  0  0  0
M  END
$$$$
