C6H8BrNO4S
APtclcactv12211716523D 0   0.00000     0.00000
 
 21 20  0  0  0  0  0  0  0  0999 V2000
  -12.7136   -2.4247   -0.6338 O   0  0  0  0  0  0  0  0  0  0  0  0
   -1.2078    2.4204    0.0741 Br  0  0  0  0  0  0  0  0  0  0  0  0
   -0.3588    0.7479    0.3146 C   0  0  0  0  0  0  0  0  0  0  0  0
    0.9557    0.5773   -0.0827 C   0  0  0  0  0  0  0  0  0  0  0  0
    1.5782   -0.6429    0.0912 C   0  0  0  0  0  0  0  0  0  0  0  0
    0.8835   -1.6998    0.6661 C   0  0  0  0  0  0  0  0  0  0  0  0
    1.5108   -2.9356    0.8438 N   0  0  0  0  0  0  0  0  0  0  0  0
   -0.4355   -1.5255    1.0643 C   0  0  0  0  0  0  0  0  0  0  0  0
   -1.0512   -0.3010    0.8926 C   0  0  0  0  0  0  0  0  0  0  0  0
    3.2516   -0.8596   -0.4161 S   0  0  0  0  0  0  0  0  0  0  0  0
    4.0593   -0.3730    0.6470 O   0  0  0  0  0  0  0  0  0  0  0  0
    3.3490   -2.1835   -0.9231 O   0  0  0  0  0  0  0  0  0  0  0  0
    3.4886    0.0713   -1.5967 O   0  0  0  0  0  0  0  0  0  0  0  0
  -13.0550   -1.5348   -0.7970 H   0  0  0  0  0  0  0  0  0  0  0  0
  -11.7991   -2.5538   -0.9203 H   0  0  0  0  0  0  0  0  0  0  0  0
    1.4952    1.3993   -0.5296 H   0  0  0  0  0  0  0  0  0  0  0  0
    2.4322   -3.0562    0.5656 H   0  0  0  0  0  0  0  0  0  0  0  0
    1.0250   -3.6728    1.2453 H   0  0  0  0  0  0  0  0  0  0  0  0
   -0.9781   -2.3454    1.5112 H   0  0  0  0  0  0  0  0  0  0  0  0
   -2.0770   -0.1648    1.2020 H   0  0  0  0  0  0  0  0  0  0  0  0
    4.3856    0.0307   -1.9557 H   0  0  0  0  0  0  0  0  0  0  0  0
  2  3  1  0  0  0  0
  3  4  1  0  0  0  0
  4  5  2  0  0  0  0
  5  6  1  0  0  0  0
  6  7  1  0  0  0  0
  6  8  2  0  0  0  0
  8  9  1  0  0  0  0
  3  9  2  0  0  0  0
  5 10  1  0  0  0  0
 10 11  2  0  0  0  0
 10 12  2  0  0  0  0
 10 13  1  0  0  0  0
  1 14  1  0  0  0  0
  1 15  1  0  0  0  0
  4 16  1  0  0  0  0
  7 17  1  0  0  0  0
  7 18  1  0  0  0  0
  8 19  1  0  0  0  0
  9 20  1  0  0  0  0
 13 21  1  0  0  0  0
M  END
$$$$
