C6H8ClNO4S
APtclcactv12211716523D 0   0.00000     0.00000
 
 21 20  0  0  0  0  0  0  0  0999 V2000
  -12.8635   -1.3817   -0.5629 O   0  0  0  0  0  0  0  0  0  0  0  0
   -0.9007    3.1325    0.0281 Cl  0  0  0  0  0  0  0  0  0  0  0  0
   -0.4070    1.4864    0.2733 C   0  0  0  0  0  0  0  0  0  0  0  0
    0.8668    1.0858   -0.0908 C   0  0  0  0  0  0  0  0  0  0  0  0
    1.2624   -0.2229    0.1035 C   0  0  0  0  0  0  0  0  0  0  0  0
    0.3805   -1.1376    0.6651 C   0  0  0  0  0  0  0  0  0  0  0  0
    0.7783   -2.4625    0.8633 N   0  0  0  0  0  0  0  0  0  0  0  0
   -0.8970   -0.7329    1.0295 C   0  0  0  0  0  0  0  0  0  0  0  0
   -1.2856    0.5787    0.8377 C   0  0  0  0  0  0  0  0  0  0  0  0
    2.8840   -0.7322   -0.3609 S   0  0  0  0  0  0  0  0  0  0  0  0
    3.7386   -0.3851    0.7200 O   0  0  0  0  0  0  0  0  0  0  0  0
    2.7610   -2.0569   -0.8601 O   0  0  0  0  0  0  0  0  0  0  0  0
    3.3079    0.1333   -1.5389 O   0  0  0  0  0  0  0  0  0  0  0  0
  -13.1619   -0.4698   -0.6833 H   0  0  0  0  0  0  0  0  0  0  0  0
  -11.9599   -1.5432   -0.8670 H   0  0  0  0  0  0  0  0  0  0  0  0
    1.5519    1.7972   -0.5277 H   0  0  0  0  0  0  0  0  0  0  0  0
    1.6709   -2.7442    0.6087 H   0  0  0  0  0  0  0  0  0  0  0  0
    0.1618   -3.1005    1.2555 H   0  0  0  0  0  0  0  0  0  0  0  0
   -1.5847   -1.4420    1.4660 H   0  0  0  0  0  0  0  0  0  0  0  0
   -2.2788    0.8941    1.1213 H   0  0  0  0  0  0  0  0  0  0  0  0
    4.1924   -0.0660   -1.8752 H   0  0  0  0  0  0  0  0  0  0  0  0
  2  3  1  0  0  0  0
  3  4  1  0  0  0  0
  4  5  2  0  0  0  0
  5  6  1  0  0  0  0
  6  7  1  0  0  0  0
  6  8  2  0  0  0  0
  8  9  1  0  0  0  0
  3  9  2  0  0  0  0
  5 10  1  0  0  0  0
 10 11  2  0  0  0  0
 10 12  2  0  0  0  0
 10 13  1  0  0  0  0
  1 14  1  0  0  0  0
  1 15  1  0  0  0  0
  4 16  1  0  0  0  0
  7 17  1  0  0  0  0
  7 18  1  0  0  0  0
  8 19  1  0  0  0  0
  9 20  1  0  0  0  0
 13 21  1  0  0  0  0
M  END
$$$$
