C7H7Cl
APtclcactv12151716163D 0   0.00000     0.00000
 
 15 15  0  0  0  0  0  0  0  0999 V2000
   -2.5973    0.0000   -0.0008 Cl  0  0  0  0  0  0  0  0  0  0  0  0
   -0.8613   -0.0000   -0.0005 C   0  0  0  0  0  0  0  0  0  0  0  0
   -0.1692    1.1980    0.0007 C   0  0  0  0  0  0  0  0  0  0  0  0
    1.2129    1.1974    0.0010 C   0  0  0  0  0  0  0  0  0  0  0  0
    1.9038   -0.0000   -0.0004 C   0  0  0  0  0  0  0  0  0  0  0  0
    1.2129   -1.1974   -0.0021 C   0  0  0  0  0  0  0  0  0  0  0  0
   -0.1692   -1.1980    0.0044 C   0  0  0  0  0  0  0  0  0  0  0  0
    3.4108   -0.0000   -0.0007 C   0  0  0  0  0  0  0  0  0  0  0  0
   -0.7089    2.1335    0.0011 H   0  0  0  0  0  0  0  0  0  0  0  0
    1.7532    2.1325    0.0019 H   0  0  0  0  0  0  0  0  0  0  0  0
    1.7532   -2.1325   -0.0036 H   0  0  0  0  0  0  0  0  0  0  0  0
   -0.7089   -2.1335    0.0031 H   0  0  0  0  0  0  0  0  0  0  0  0
    3.7743   -0.0011    1.0269 H   0  0  0  0  0  0  0  0  0  0  0  0
    3.7741   -0.8894   -0.5156 H   0  0  0  0  0  0  0  0  0  0  0  0
    3.7741    0.8905   -0.5136 H   0  0  0  0  0  0  0  0  0  0  0  0
  1  2  1  0  0  0  0
  2  3  2  0  0  0  0
  3  4  1  0  0  0  0
  4  5  2  0  0  0  0
  5  6  1  0  0  0  0
  6  7  2  0  0  0  0
  2  7  1  0  0  0  0
  5  8  1  0  0  0  0
  3  9  1  0  0  0  0
  4 10  1  0  0  0  0
  6 11  1  0  0  0  0
  7 12  1  0  0  0  0
  8 13  1  0  0  0  0
  8 14  1  0  0  0  0
  8 15  1  0  0  0  0
M  END
$$$$
