C7H5ClO2
APtclcactv12151716133D 0   0.00000     0.00000
 
 15 15  0  0  0  0  0  0  0  0999 V2000
   -3.3764   -0.0318   -0.0006 Cl  0  0  0  0  0  0  0  0  0  0  0  0
   -1.6406   -0.0057   -0.0006 C   0  0  0  0  0  0  0  0  0  0  0  0
   -0.9690    1.2058    0.0002 C   0  0  0  0  0  0  0  0  0  0  0  0
    0.4096    1.2331    0.0002 C   0  0  0  0  0  0  0  0  0  0  0  0
    1.1288    0.0359   -0.0007 C   0  0  0  0  0  0  0  0  0  0  0  0
    2.6053    0.0580   -0.0002 C   0  0  0  0  0  0  0  0  0  0  0  0
    3.1968    1.1191    0.0010 O   0  0  0  0  0  0  0  0  0  0  0  0
    3.2963   -1.0984   -0.0010 O   0  0  0  0  0  0  0  0  0  0  0  0
    0.4459   -1.1824   -0.0015 C   0  0  0  0  0  0  0  0  0  0  0  0
   -0.9329   -1.1965    0.0043 C   0  0  0  0  0  0  0  0  0  0  0  0
   -1.5263    2.1309    0.0005 H   0  0  0  0  0  0  0  0  0  0  0  0
    0.9321    2.1783    0.0005 H   0  0  0  0  0  0  0  0  0  0  0  0
    4.2611   -1.0333   -0.0006 H   0  0  0  0  0  0  0  0  0  0  0  0
    0.9965   -2.1115   -0.0021 H   0  0  0  0  0  0  0  0  0  0  0  0
   -1.4622   -2.1379    0.0036 H   0  0  0  0  0  0  0  0  0  0  0  0
  1  2  1  0  0  0  0
  2  3  2  0  0  0  0
  3  4  1  0  0  0  0
  4  5  2  0  0  0  0
  5  6  1  0  0  0  0
  6  7  2  0  0  0  0
  6  8  1  0  0  0  0
  5  9  1  0  0  0  0
  9 10  2  0  0  0  0
  2 10  1  0  0  0  0
  3 11  1  0  0  0  0
  4 12  1  0  0  0  0
  8 13  1  0  0  0  0
  9 14  1  0  0  0  0
 10 15  1  0  0  0  0
M  END
$$$$
