C8H8O3
APtclcactv12151716293D 0   0.00000     0.00000
 
 19 19  0  0  0  0  0  0  0  0999 V2000
   -0.3789    0.1526    0.0087 C   0  0  0  0  0  0  0  0  0  0  0  0
   -0.1891   -1.2368    0.0170 C   0  0  0  0  0  0  0  0  0  0  0  0
   -1.2590   -2.0706    0.0265 O   0  0  0  0  0  0  0  0  0  0  0  0
    1.0973   -1.7544    0.0150 C   0  0  0  0  0  0  0  0  0  0  0  0
    2.1856   -0.9043    0.0054 C   0  0  0  0  0  0  0  0  0  0  0  0
    2.0026    0.4687   -0.0028 C   0  0  0  0  0  0  0  0  0  0  0  0
    3.1991    1.3848   -0.0138 C   0  0  0  0  0  0  0  0  0  0  0  0
    0.7314    1.0009   -0.0014 C   0  0  0  0  0  0  0  0  0  0  0  0
   -1.7415    0.7148    0.0046 C   0  0  0  0  0  0  0  0  0  0  0  0
   -2.7044   -0.0263    0.0084 O   0  0  0  0  0  0  0  0  0  0  0  0
   -1.9192    2.0505   -0.0033 O   0  0  0  0  0  0  0  0  0  0  0  0
   -1.5726   -2.3181   -0.8541 H   0  0  0  0  0  0  0  0  0  0  0  0
    1.2483   -2.8238    0.0214 H   0  0  0  0  0  0  0  0  0  0  0  0
    3.1855   -1.3125    0.0046 H   0  0  0  0  0  0  0  0  0  0  0  0
    3.4833    1.5989   -1.0441 H   0  0  0  0  0  0  0  0  0  0  0  0
    2.9487    2.3156    0.4950 H   0  0  0  0  0  0  0  0  0  0  0  0
    4.0308    0.9023    0.4997 H   0  0  0  0  0  0  0  0  0  0  0  0
    0.5936    2.0720   -0.0082 H   0  0  0  0  0  0  0  0  0  0  0  0
   -2.8312    2.3720   -0.0057 H   0  0  0  0  0  0  0  0  0  0  0  0
  1  2  1  0  0  0  0
  2  3  1  0  0  0  0
  2  4  2  0  0  0  0
  4  5  1  0  0  0  0
  5  6  2  0  0  0  0
  6  7  1  0  0  0  0
  6  8  1  0  0  0  0
  1  8  2  0  0  0  0
  1  9  1  0  0  0  0
  9 10  2  0  0  0  0
  9 11  1  0  0  0  0
  3 12  1  0  0  0  0
  4 13  1  0  0  0  0
  5 14  1  0  0  0  0
  7 15  1  0  0  0  0
  7 16  1  0  0  0  0
  7 17  1  0  0  0  0
  8 18  1  0  0  0  0
 11 19  1  0  0  0  0
M  END
$$$$
