C10H14
APtclcactv12211717253D 0   0.00000     0.00000
 
 24 24  0  0  0  0  0  0  0  0999 V2000
   -0.6412   -0.2369    0.0020 C   0  0  0  0  0  0  0  0  0  0  0  0
    0.1831   -1.3466   -0.0032 C   0  0  0  0  0  0  0  0  0  0  0  0
    1.5562   -1.1877   -0.0040 C   0  0  0  0  0  0  0  0  0  0  0  0
    2.1052    0.0810    0.0000 C   0  0  0  0  0  0  0  0  0  0  0  0
    1.2809    1.1908    0.0043 C   0  0  0  0  0  0  0  0  0  0  0  0
   -0.0923    1.0318    0.0064 C   0  0  0  0  0  0  0  0  0  0  0  0
    3.6022    0.2543    0.0002 C   0  0  0  0  0  0  0  0  0  0  0  0
   -2.1382   -0.4102   -0.0036 C   0  0  0  0  0  0  0  0  0  0  0  0
   -2.7314    0.2391    1.2484 C   0  0  0  0  0  0  0  0  0  0  0  0
   -2.7241    0.2562   -1.2500 C   0  0  0  0  0  0  0  0  0  0  0  0
   -0.2458   -2.3378   -0.0063 H   0  0  0  0  0  0  0  0  0  0  0  0
    2.2002   -2.0547   -0.0073 H   0  0  0  0  0  0  0  0  0  0  0  0
    1.7098    2.1819    0.0081 H   0  0  0  0  0  0  0  0  0  0  0  0
   -0.7362    1.8988    0.0101 H   0  0  0  0  0  0  0  0  0  0  0  0
    3.9628    0.2994   -1.0274 H   0  0  0  0  0  0  0  0  0  0  0  0
    3.8609    1.1785    0.5170 H   0  0  0  0  0  0  0  0  0  0  0  0
    4.0656   -0.5896    0.5112 H   0  0  0  0  0  0  0  0  0  0  0  0
   -2.3809   -1.4728   -0.0115 H   0  0  0  0  0  0  0  0  0  0  0  0
   -2.3139   -0.2356    2.1364 H   0  0  0  0  0  0  0  0  0  0  0  0
   -2.4886    1.3017    1.2564 H   0  0  0  0  0  0  0  0  0  0  0  0
   -3.8141    0.1138    1.2444 H   0  0  0  0  0  0  0  0  0  0  0  0
   -2.3015   -0.2064   -2.1419 H   0  0  0  0  0  0  0  0  0  0  0  0
   -3.8069    0.1308   -1.2540 H   0  0  0  0  0  0  0  0  0  0  0  0
   -2.4814    1.3188   -1.2420 H   0  0  0  0  0  0  0  0  0  0  0  0
  1  2  2  0  0  0  0
  2  3  1  0  0  0  0
  3  4  2  0  0  0  0
  4  5  1  0  0  0  0
  5  6  2  0  0  0  0
  1  6  1  0  0  0  0
  4  7  1  0  0  0  0
  1  8  1  0  0  0  0
  8  9  1  0  0  0  0
  8 10  1  0  0  0  0
  2 11  1  0  0  0  0
  3 12  1  0  0  0  0
  5 13  1  0  0  0  0
  6 14  1  0  0  0  0
  7 15  1  0  0  0  0
  7 16  1  0  0  0  0
  7 17  1  0  0  0  0
  8 18  1  0  0  0  0
  9 19  1  0  0  0  0
  9 20  1  0  0  0  0
  9 21  1  0  0  0  0
 10 22  1  0  0  0  0
 10 23  1  0  0  0  0
 10 24  1  0  0  0  0
M  END
$$$$
