C14H15N3
APtclcactv12151716113D 0   0.00000     0.00000
 
 32 33  0  0  0  0  0  0  0  0999 V2000
   -5.5488    0.9623   -0.0008 C   0  0  0  0  0  0  0  0  0  0  0  0
   -4.6479   -0.1929   -0.0014 N   0  0  0  0  0  0  0  0  0  0  0  0
   -3.2688   -0.0003   -0.0004 C   0  0  0  0  0  0  0  0  0  0  0  0
   -2.7482    1.2906    0.0011 C   0  0  0  0  0  0  0  0  0  0  0  0
   -1.3857    1.4851    0.0016 C   0  0  0  0  0  0  0  0  0  0  0  0
   -0.5236    0.3831    0.0011 C   0  0  0  0  0  0  0  0  0  0  0  0
   -1.0508   -0.9130    0.0000 C   0  0  0  0  0  0  0  0  0  0  0  0
   -2.4145   -1.0992    0.0048 C   0  0  0  0  0  0  0  0  0  0  0  0
    0.8277    0.5718    0.0011 N   0  0  0  0  0  0  0  0  0  0  0  0
    1.6210   -0.4454    0.0006 N   0  0  0  0  0  0  0  0  0  0  0  0
    2.9750   -0.2563    0.0006 C   0  0  0  0  0  0  0  0  0  0  0  0
    3.8375   -1.3559    0.0001 C   0  0  0  0  0  0  0  0  0  0  0  0
    5.2023   -1.1574   -0.0004 C   0  0  0  0  0  0  0  0  0  0  0  0
    5.7181    0.1267   -0.0002 C   0  0  0  0  0  0  0  0  0  0  0  0
    4.8702    1.2204    0.0003 C   0  0  0  0  0  0  0  0  0  0  0  0
    3.5032    1.0374   -0.0046 C   0  0  0  0  0  0  0  0  0  0  0  0
   -5.1979   -1.5508   -0.0029 C   0  0  0  0  0  0  0  0  0  0  0  0
   -5.7717    1.2498   -1.0283 H   0  0  0  0  0  0  0  0  0  0  0  0
   -6.4744    0.7010    0.5123 H   0  0  0  0  0  0  0  0  0  0  0  0
   -5.0708    1.7956    0.5141 H   0  0  0  0  0  0  0  0  0  0  0  0
   -3.4143    2.1407    0.0016 H   0  0  0  0  0  0  0  0  0  0  0  0
   -0.9825    2.4870    0.0021 H   0  0  0  0  0  0  0  0  0  0  0  0
   -0.3886   -1.7662   -0.0008 H   0  0  0  0  0  0  0  0  0  0  0  0
   -2.8222   -2.0993    0.0040 H   0  0  0  0  0  0  0  0  0  0  0  0
    3.4363   -2.3586    0.0004 H   0  0  0  0  0  0  0  0  0  0  0  0
    5.8701   -2.0062   -0.0004 H   0  0  0  0  0  0  0  0  0  0  0  0
    6.7878    0.2761   -0.0002 H   0  0  0  0  0  0  0  0  0  0  0  0
    5.2799    2.2197    0.0004 H   0  0  0  0  0  0  0  0  0  0  0  0
    2.8427    1.8918   -0.0042 H   0  0  0  0  0  0  0  0  0  0  0  0
   -6.2868   -1.5017   -0.0035 H   0  0  0  0  0  0  0  0  0  0  0  0
   -4.8575   -2.0796   -0.8932 H   0  0  0  0  0  0  0  0  0  0  0  0
   -4.8585   -2.0813    0.8867 H   0  0  0  0  0  0  0  0  0  0  0  0
  1  2  1  0  0  0  0
  2  3  1  0  0  0  0
  3  4  2  0  0  0  0
  4  5  1  0  0  0  0
  5  6  2  0  0  0  0
  6  7  1  0  0  0  0
  7  8  2  0  0  0  0
  3  8  1  0  0  0  0
  6  9  1  0  0  0  0
  9 10  2  0  0  0  0
 10 11  1  0  0  0  0
 11 12  2  0  0  0  0
 12 13  1  0  0  0  0
 13 14  2  0  0  0  0
 14 15  1  0  0  0  0
 15 16  2  0  0  0  0
 11 16  1  0  0  0  0
  2 17  1  0  0  0  0
  1 18  1  0  0  0  0
  1 19  1  0  0  0  0
  1 20  1  0  0  0  0
  4 21  1  0  0  0  0
  5 22  1  0  0  0  0
  7 23  1  0  0  0  0
  8 24  1  0  0  0  0
 12 25  1  0  0  0  0
 13 26  1  0  0  0  0
 14 27  1  0  0  0  0
 15 28  1  0  0  0  0
 16 29  1  0  0  0  0
 17 30  1  0  0  0  0
 17 31  1  0  0  0  0
 17 32  1  0  0  0  0
M  END
$$$$
