C10H14O2
APtclcactv12211717273D 0   0.00000     0.00000
 
 26 26  0  0  0  0  0  0  0  0999 V2000
   -3.3927   -0.8525   -0.0012 C   0  0  0  0  0  0  0  0  0  0  0  0
   -4.9095   -0.6520   -0.0013 C   0  0  0  0  0  0  0  0  0  0  0  0
   -2.7440    0.4207   -0.0005 O   0  0  0  0  0  0  0  0  0  0  0  0
   -1.3841    0.4207   -0.0003 C   0  0  0  0  0  0  0  0  0  0  0  0
   -0.6907    1.6219    0.0003 C   0  0  0  0  0  0  0  0  0  0  0  0
    0.6907    1.6219    0.0005 C   0  0  0  0  0  0  0  0  0  0  0  0
    1.3841    0.4207    0.0003 C   0  0  0  0  0  0  0  0  0  0  0  0
    0.6907   -0.7804    0.0006 C   0  0  0  0  0  0  0  0  0  0  0  0
   -0.6907   -0.7804    0.0049 C   0  0  0  0  0  0  0  0  0  0  0  0
    2.7440    0.4207   -0.0004 O   0  0  0  0  0  0  0  0  0  0  0  0
    3.3927   -0.8525   -0.0005 C   0  0  0  0  0  0  0  0  0  0  0  0
    4.9095   -0.6520   -0.0014 C   0  0  0  0  0  0  0  0  0  0  0  0
   -3.1000   -1.4100    0.8885 H   0  0  0  0  0  0  0  0  0  0  0  0
   -3.0997   -1.4091   -0.8914 H   0  0  0  0  0  0  0  0  0  0  0  0
   -5.2025   -0.0955    0.8889 H   0  0  0  0  0  0  0  0  0  0  0  0
   -5.2023   -0.0946   -0.8910 H   0  0  0  0  0  0  0  0  0  0  0  0
   -5.4044   -1.6232   -0.0018 H   0  0  0  0  0  0  0  0  0  0  0  0
   -1.2307    2.5572    0.0004 H   0  0  0  0  0  0  0  0  0  0  0  0
    1.2307    2.5572    0.0003 H   0  0  0  0  0  0  0  0  0  0  0  0
    1.2307   -1.7157    0.0001 H   0  0  0  0  0  0  0  0  0  0  0  0
   -1.2307   -1.7157    0.0050 H   0  0  0  0  0  0  0  0  0  0  0  0
    3.1004   -1.4093    0.8898 H   0  0  0  0  0  0  0  0  0  0  0  0
    3.0993   -1.4097   -0.8902 H   0  0  0  0  0  0  0  0  0  0  0  0
    5.2019   -0.0953   -0.8917 H   0  0  0  0  0  0  0  0  0  0  0  0
    5.2029   -0.0948    0.8882 H   0  0  0  0  0  0  0  0  0  0  0  0
    5.4044   -1.6232   -0.0015 H   0  0  0  0  0  0  0  0  0  0  0  0
  1  2  1  0  0  0  0
  1  3  1  0  0  0  0
  3  4  1  0  0  0  0
  4  5  2  0  0  0  0
  5  6  1  0  0  0  0
  6  7  2  0  0  0  0
  7  8  1  0  0  0  0
  8  9  2  0  0  0  0
  4  9  1  0  0  0  0
  7 10  1  0  0  0  0
 10 11  1  0  0  0  0
 11 12  1  0  0  0  0
  1 13  1  0  0  0  0
  1 14  1  0  0  0  0
  2 15  1  0  0  0  0
  2 16  1  0  0  0  0
  2 17  1  0  0  0  0
  5 18  1  0  0  0  0
  6 19  1  0  0  0  0
  8 20  1  0  0  0  0
  9 21  1  0  0  0  0
 11 22  1  0  0  0  0
 11 23  1  0  0  0  0
 12 24  1  0  0  0  0
 12 25  1  0  0  0  0
 12 26  1  0  0  0  0
M  END
$$$$
