C9H9NOS
APtclcactv12151716433D 0   0.00000     0.00000
 
 21 21  0  0  0  0  0  0  0  0999 V2000
   -3.5074   -1.1015   -0.0009 C   0  0  0  0  0  0  0  0  0  0  0  0
   -5.0371   -1.1273   -0.0006 C   0  0  0  0  0  0  0  0  0  0  0  0
   -3.0538    0.2536   -0.0004 O   0  0  0  0  0  0  0  0  0  0  0  0
   -1.7134    0.4538   -0.0006 C   0  0  0  0  0  0  0  0  0  0  0  0
   -1.2072    1.7559   -0.0001 C   0  0  0  0  0  0  0  0  0  0  0  0
    0.1369    1.9692    0.0002 C   0  0  0  0  0  0  0  0  0  0  0  0
    1.0248    0.8628    0.0000 C   0  0  0  0  0  0  0  0  0  0  0  0
    0.4989   -0.4549   -0.0004 C   0  0  0  0  0  0  0  0  0  0  0  0
   -0.8488   -0.6436    0.0046 C   0  0  0  0  0  0  0  0  0  0  0  0
    2.3352    1.0585   -0.0001 N   0  0  0  0  0  0  0  0  0  0  0  0
    3.1132    0.0801   -0.0003 C   0  0  0  0  0  0  0  0  0  0  0  0
    4.0802   -1.1358   -0.0005 S   0  0  0  0  0  0  0  0  0  0  0  0
   -3.1352   -1.6095    0.8888 H   0  0  0  0  0  0  0  0  0  0  0  0
   -3.1356   -1.6088   -0.8912 H   0  0  0  0  0  0  0  0  0  0  0  0
   -5.3831   -2.1610   -0.0010 H   0  0  0  0  0  0  0  0  0  0  0  0
   -5.4089   -0.6201    0.8896 H   0  0  0  0  0  0  0  0  0  0  0  0
   -5.4092   -0.6193   -0.8903 H   0  0  0  0  0  0  0  0  0  0  0  0
   -1.8852    2.5966   -0.0003 H   0  0  0  0  0  0  0  0  0  0  0  0
    0.5260    2.9767    0.0002 H   0  0  0  0  0  0  0  0  0  0  0  0
    1.1654   -1.3047   -0.0010 H   0  0  0  0  0  0  0  0  0  0  0  0
   -1.2516   -1.6457    0.0043 H   0  0  0  0  0  0  0  0  0  0  0  0
  1  2  1  0  0  0  0
  1  3  1  0  0  0  0
  3  4  1  0  0  0  0
  4  5  2  0  0  0  0
  5  6  1  0  0  0  0
  6  7  2  0  0  0  0
  7  8  1  0  0  0  0
  8  9  2  0  0  0  0
  4  9  1  0  0  0  0
  7 10  1  0  0  0  0
 10 11  2  0  0  0  0
 11 12  2  0  0  0  0
  1 13  1  0  0  0  0
  1 14  1  0  0  0  0
  2 15  1  0  0  0  0
  2 16  1  0  0  0  0
  2 17  1  0  0  0  0
  5 18  1  0  0  0  0
  6 19  1  0  0  0  0
  8 20  1  0  0  0  0
  9 21  1  0  0  0  0
M  END
$$$$
