C6H13FO7S
APtclcactv12211716513D 0   0.00000     0.00000
 
 28 24  0  0  0  0  0  0  0  0999 V2000
  -35.2351   -0.6112   -0.3085 O   0  0  0  0  0  0  0  0  0  0  0  0
  -25.2765   -0.2457   -0.0098 O   0  0  0  0  0  0  0  0  0  0  0  0
  -15.3180    0.1197    0.2889 O   0  0  0  0  0  0  0  0  0  0  0  0
   -5.3595    0.4852    0.5877 O   0  0  0  0  0  0  0  0  0  0  0  0
    5.5377    2.9197    0.1579 F   0  0  0  0  0  0  0  0  0  0  0  0
    6.4583    1.9340    0.0788 C   0  0  0  0  0  0  0  0  0  0  0  0
    7.5935    2.1067   -0.6949 C   0  0  0  0  0  0  0  0  0  0  0  0
    8.5348    1.0980   -0.7746 C   0  0  0  0  0  0  0  0  0  0  0  0
    8.3433   -0.0831   -0.0822 C   0  0  0  0  0  0  0  0  0  0  0  0
    7.2101   -0.2568    0.6904 C   0  0  0  0  0  0  0  0  0  0  0  0
    6.2702    0.7527    0.7761 C   0  0  0  0  0  0  0  0  0  0  0  0
    9.5443   -1.3683   -0.1848 S   0  0  0  0  0  0  0  0  0  0  0  0
    8.8658   -2.5774    0.1270 O   0  0  0  0  0  0  0  0  0  0  0  0
   10.2480   -1.1637   -1.4022 O   0  0  0  0  0  0  0  0  0  0  0  0
   10.5480   -1.1375    0.9358 O   0  0  0  0  0  0  0  0  0  0  0  0
  -35.5057    0.2706   -0.5988 H   0  0  0  0  0  0  0  0  0  0  0  0
  -34.3823   -0.8976   -0.6634 H   0  0  0  0  0  0  0  0  0  0  0  0
  -25.5472    0.6360   -0.3001 H   0  0  0  0  0  0  0  0  0  0  0  0
  -24.4238   -0.5322   -0.3647 H   0  0  0  0  0  0  0  0  0  0  0  0
  -15.5887    1.0015   -0.0014 H   0  0  0  0  0  0  0  0  0  0  0  0
  -14.4653   -0.1667   -0.0659 H   0  0  0  0  0  0  0  0  0  0  0  0
   -5.6302    1.3670    0.2974 H   0  0  0  0  0  0  0  0  0  0  0  0
   -4.5068    0.1988    0.2328 H   0  0  0  0  0  0  0  0  0  0  0  0
    7.7431    3.0292   -1.2363 H   0  0  0  0  0  0  0  0  0  0  0  0
    9.4201    1.2323   -1.3784 H   0  0  0  0  0  0  0  0  0  0  0  0
    7.0612   -1.1802    1.2303 H   0  0  0  0  0  0  0  0  0  0  0  0
    5.3850    0.6168    1.3797 H   0  0  0  0  0  0  0  0  0  0  0  0
   11.2572   -1.7940    0.9700 H   0  0  0  0  0  0  0  0  0  0  0  0
  5  6  1  0  0  0  0
  6  7  2  0  0  0  0
  7  8  1  0  0  0  0
  8  9  2  0  0  0  0
  9 10  1  0  0  0  0
 10 11  2  0  0  0  0
  6 11  1  0  0  0  0
  9 12  1  0  0  0  0
 12 13  2  0  0  0  0
 12 14  2  0  0  0  0
 12 15  1  0  0  0  0
  1 16  1  0  0  0  0
  1 17  1  0  0  0  0
  2 18  1  0  0  0  0
  2 19  1  0  0  0  0
  3 20  1  0  0  0  0
  3 21  1  0  0  0  0
  4 22  1  0  0  0  0
  4 23  1  0  0  0  0
  7 24  1  0  0  0  0
  8 25  1  0  0  0  0
 10 26  1  0  0  0  0
 11 27  1  0  0  0  0
 15 28  1  0  0  0  0
M  END
$$$$
