C8H8O3
APtclcactv12151716293D 0   0.00000     0.00000
 
 19 19  0  0  0  0  0  0  0  0999 V2000
    3.8399    0.7822   -0.0014 C   0  0  0  0  0  0  0  0  0  0  0  0
    3.0802   -0.4281   -0.0006 O   0  0  0  0  0  0  0  0  0  0  0  0
    1.7286   -0.3071   -0.0004 C   0  0  0  0  0  0  0  0  0  0  0  0
    0.9308   -1.4455    0.0004 C   0  0  0  0  0  0  0  0  0  0  0  0
   -0.4409   -1.3272    0.0001 C   0  0  0  0  0  0  0  0  0  0  0  0
   -1.0311   -0.0600   -0.0005 C   0  0  0  0  0  0  0  0  0  0  0  0
   -2.5000    0.0715   -0.0003 C   0  0  0  0  0  0  0  0  0  0  0  0
   -3.1989   -0.9224    0.0004 O   0  0  0  0  0  0  0  0  0  0  0  0
   -3.0669    1.2939   -0.0009 O   0  0  0  0  0  0  0  0  0  0  0  0
   -0.2252    1.0822   -0.0008 C   0  0  0  0  0  0  0  0  0  0  0  0
    1.1457    0.9549    0.0047 C   0  0  0  0  0  0  0  0  0  0  0  0
    4.9035    0.5436   -0.0015 H   0  0  0  0  0  0  0  0  0  0  0  0
    3.5977    1.3626   -0.8917 H   0  0  0  0  0  0  0  0  0  0  0  0
    3.5980    1.3636    0.8883 H   0  0  0  0  0  0  0  0  0  0  0  0
    1.3876   -2.4241    0.0009 H   0  0  0  0  0  0  0  0  0  0  0  0
   -1.0600   -2.2121    0.0000 H   0  0  0  0  0  0  0  0  0  0  0  0
   -4.0333    1.3296   -0.0008 H   0  0  0  0  0  0  0  0  0  0  0  0
   -0.6772    2.0630   -0.0013 H   0  0  0  0  0  0  0  0  0  0  0  0
    1.7692    1.8368    0.0044 H   0  0  0  0  0  0  0  0  0  0  0  0
  1  2  1  0  0  0  0
  2  3  1  0  0  0  0
  3  4  2  0  0  0  0
  4  5  1  0  0  0  0
  5  6  2  0  0  0  0
  6  7  1  0  0  0  0
  7  8  2  0  0  0  0
  7  9  1  0  0  0  0
  6 10  1  0  0  0  0
 10 11  2  0  0  0  0
  3 11  1  0  0  0  0
  1 12  1  0  0  0  0
  1 13  1  0  0  0  0
  1 14  1  0  0  0  0
  4 15  1  0  0  0  0
  5 16  1  0  0  0  0
  9 17  1  0  0  0  0
 10 18  1  0  0  0  0
 11 19  1  0  0  0  0
M  END
$$$$
