C10H14O
APtclcactv12211717263D 0   0.00000     0.00000
 
 25 25  0  0  0  0  0  0  0  0999 V2000
   -1.3702    0.0023   -0.9982 C   0  0  0  0  0  0  0  0  0  0  0  0
   -2.2814   -0.0005    0.2309 C   0  0  0  0  0  0  0  0  0  0  0  0
   -3.7439    0.0006   -0.2185 C   0  0  0  0  0  0  0  0  0  0  0  0
   -4.6551   -0.0022    1.0106 C   0  0  0  0  0  0  0  0  0  0  0  0
    0.0703    0.0013   -0.5556 C   0  0  0  0  0  0  0  0  0  0  0  0
    0.7300   -1.1973   -0.3557 C   0  0  0  0  0  0  0  0  0  0  0  0
    2.0505   -1.2010    0.0500 C   0  0  0  0  0  0  0  0  0  0  0  0
    2.7147   -0.0007    0.2569 C   0  0  0  0  0  0  0  0  0  0  0  0
    2.0506    1.2006    0.0556 C   0  0  0  0  0  0  0  0  0  0  0  0
    0.7317    1.1989   -0.3556 C   0  0  0  0  0  0  0  0  0  0  0  0
    4.0137   -0.0016    0.6565 O   0  0  0  0  0  0  0  0  0  0  0  0
   -1.5666   -0.8863   -1.5982 H   0  0  0  0  0  0  0  0  0  0  0  0
   -1.5666    0.8937   -1.5941 H   0  0  0  0  0  0  0  0  0  0  0  0
   -2.0850   -0.8918    0.8267 H   0  0  0  0  0  0  0  0  0  0  0  0
   -2.0850    0.8881    0.8308 H   0  0  0  0  0  0  0  0  0  0  0  0
   -3.9403    0.8920   -0.8143 H   0  0  0  0  0  0  0  0  0  0  0  0
   -3.9403   -0.8880   -0.8184 H   0  0  0  0  0  0  0  0  0  0  0  0
   -4.4587   -0.8936    1.6064 H   0  0  0  0  0  0  0  0  0  0  0  0
   -4.4587    0.8864    1.6105 H   0  0  0  0  0  0  0  0  0  0  0  0
   -5.6970   -0.0014    0.6904 H   0  0  0  0  0  0  0  0  0  0  0  0
    0.2124   -2.1314   -0.5165 H   0  0  0  0  0  0  0  0  0  0  0  0
    2.5653   -2.1374    0.2064 H   0  0  0  0  0  0  0  0  0  0  0  0
    2.5655    2.1363    0.2159 H   0  0  0  0  0  0  0  0  0  0  0  0
    0.2143    2.1338   -0.5125 H   0  0  0  0  0  0  0  0  0  0  0  0
    4.6493   -0.0001   -0.0722 H   0  0  0  0  0  0  0  0  0  0  0  0
  1  2  1  0  0  0  0
  2  3  1  0  0  0  0
  3  4  1  0  0  0  0
  1  5  1  0  0  0  0
  5  6  2  0  0  0  0
  6  7  1  0  0  0  0
  7  8  2  0  0  0  0
  8  9  1  0  0  0  0
  9 10  2  0  0  0  0
  5 10  1  0  0  0  0
  8 11  1  0  0  0  0
  1 12  1  0  0  0  0
  1 13  1  0  0  0  0
  2 14  1  0  0  0  0
  2 15  1  0  0  0  0
  3 16  1  0  0  0  0
  3 17  1  0  0  0  0
  4 18  1  0  0  0  0
  4 19  1  0  0  0  0
  4 20  1  0  0  0  0
  6 21  1  0  0  0  0
  7 22  1  0  0  0  0
  9 23  1  0  0  0  0
 10 24  1  0  0  0  0
 11 25  1  0  0  0  0
M  END
$$$$
