C14H22O
APtclcactv12211717043D 0   0.00000     0.00000
 
 37 37  0  0  0  0  0  0  0  0999 V2000
    0.9704   -1.3001    0.0098 C   0  0  0  0  0  0  0  0  0  0  0  0
   -0.1158   -0.2225    0.0017 C   0  0  0  0  0  0  0  0  0  0  0  0
   -1.4938   -0.8873    0.0067 C   0  0  0  0  0  0  0  0  0  0  0  0
   -2.5799    0.1902   -0.0015 C   0  0  0  0  0  0  0  0  0  0  0  0
   -3.9579   -0.4746    0.0035 C   0  0  0  0  0  0  0  0  0  0  0  0
   -5.0441    0.6030   -0.0046 C   0  0  0  0  0  0  0  0  0  0  0  0
   -6.4221   -0.0618    0.0004 C   0  0  0  0  0  0  0  0  0  0  0  0
   -7.5082    1.0157   -0.0077 C   0  0  0  0  0  0  0  0  0  0  0  0
    2.3277   -0.6452    0.0049 C   0  0  0  0  0  0  0  0  0  0  0  0
    2.9493   -0.3364    1.2007 C   0  0  0  0  0  0  0  0  0  0  0  0
    4.1935    0.2639    1.1989 C   0  0  0  0  0  0  0  0  0  0  0  0
    4.8193    0.5568   -0.0041 C   0  0  0  0  0  0  0  0  0  0  0  0
    4.1935    0.2459   -1.2026 C   0  0  0  0  0  0  0  0  0  0  0  0
    2.9518   -0.3595   -1.1954 C   0  0  0  0  0  0  0  0  0  0  0  0
    6.0431    1.1477   -0.0086 O   0  0  0  0  0  0  0  0  0  0  0  0
    0.8664   -1.9140    0.9044 H   0  0  0  0  0  0  0  0  0  0  0  0
    0.8664   -1.9274   -0.8755 H   0  0  0  0  0  0  0  0  0  0  0  0
   -0.0118    0.4048    0.8870 H   0  0  0  0  0  0  0  0  0  0  0  0
   -0.0118    0.3915   -0.8929 H   0  0  0  0  0  0  0  0  0  0  0  0
   -1.5977   -1.5146   -0.8786 H   0  0  0  0  0  0  0  0  0  0  0  0
   -1.5977   -1.5013    0.9013 H   0  0  0  0  0  0  0  0  0  0  0  0
   -2.4759    0.8176    0.8838 H   0  0  0  0  0  0  0  0  0  0  0  0
   -2.4759    0.8042   -0.8961 H   0  0  0  0  0  0  0  0  0  0  0  0
   -4.0619   -1.1019   -0.8818 H   0  0  0  0  0  0  0  0  0  0  0  0
   -4.0619   -1.0885    0.8981 H   0  0  0  0  0  0  0  0  0  0  0  0
   -4.9401    1.2303    0.8807 H   0  0  0  0  0  0  0  0  0  0  0  0
   -4.9401    1.2170   -0.8992 H   0  0  0  0  0  0  0  0  0  0  0  0
   -6.5260   -0.6892   -0.8849 H   0  0  0  0  0  0  0  0  0  0  0  0
   -6.5260   -0.6758    0.8950 H   0  0  0  0  0  0  0  0  0  0  0  0
   -7.4042    1.6431    0.8776 H   0  0  0  0  0  0  0  0  0  0  0  0
   -7.4042    1.6297   -0.9023 H   0  0  0  0  0  0  0  0  0  0  0  0
   -8.4899    0.5421   -0.0042 H   0  0  0  0  0  0  0  0  0  0  0  0
    2.4615   -0.5642    2.1369 H   0  0  0  0  0  0  0  0  0  0  0  0
    4.6784    0.5053    2.1332 H   0  0  0  0  0  0  0  0  0  0  0  0
    4.6786    0.4729   -2.1404 H   0  0  0  0  0  0  0  0  0  0  0  0
    2.4642   -0.6018   -2.1281 H   0  0  0  0  0  0  0  0  0  0  0  0
    6.7814    0.5233   -0.0037 H   0  0  0  0  0  0  0  0  0  0  0  0
  1  2  1  0  0  0  0
  2  3  1  0  0  0  0
  3  4  1  0  0  0  0
  4  5  1  0  0  0  0
  5  6  1  0  0  0  0
  6  7  1  0  0  0  0
  7  8  1  0  0  0  0
  1  9  1  0  0  0  0
  9 10  2  0  0  0  0
 10 11  1  0  0  0  0
 11 12  2  0  0  0  0
 12 13  1  0  0  0  0
 13 14  2  0  0  0  0
  9 14  1  0  0  0  0
 12 15  1  0  0  0  0
  1 16  1  0  0  0  0
  1 17  1  0  0  0  0
  2 18  1  0  0  0  0
  2 19  1  0  0  0  0
  3 20  1  0  0  0  0
  3 21  1  0  0  0  0
  4 22  1  0  0  0  0
  4 23  1  0  0  0  0
  5 24  1  0  0  0  0
  5 25  1  0  0  0  0
  6 26  1  0  0  0  0
  6 27  1  0  0  0  0
  7 28  1  0  0  0  0
  7 29  1  0  0  0  0
  8 30  1  0  0  0  0
  8 31  1  0  0  0  0
  8 32  1  0  0  0  0
 10 33  1  0  0  0  0
 11 34  1  0  0  0  0
 13 35  1  0  0  0  0
 14 36  1  0  0  0  0
 15 37  1  0  0  0  0
M  END
$$$$
