C6H5NO5S
APtclcactv12211716513D 0   0.00000     0.00000
 
 18 18  0  0  0  0  0  0  0  0999 V2000
    3.4788   -0.0000    0.0247 N   0  3  0  0  0  0  0  0  0  0  0  0
    4.0877   -1.0548    0.0357 O   0  0  0  0  0  0  0  0  0  0  0  0
    4.0878    1.0548    0.0300 O   0  5  0  0  0  0  0  0  0  0  0  0
    1.9989    0.0000   -0.0012 C   0  0  0  0  0  0  0  0  0  0  0  0
    1.3078   -1.1971   -0.0129 C   0  0  0  0  0  0  0  0  0  0  0  0
   -0.0744   -1.1971   -0.0372 C   0  0  0  0  0  0  0  0  0  0  0  0
   -0.7654    0.0000   -0.0492 C   0  0  0  0  0  0  0  0  0  0  0  0
   -0.0744    1.1972   -0.0365 C   0  0  0  0  0  0  0  0  0  0  0  0
    1.3077    1.1971   -0.0079 C   0  0  0  0  0  0  0  0  0  0  0  0
   -2.5271    0.0000   -0.0813 S   0  0  0  0  0  0  0  0  0  0  0  0
   -2.9184    1.2500   -0.6323 O   0  0  0  0  0  0  0  0  0  0  0  0
   -2.9184   -1.2494   -0.6335 O   0  0  0  0  0  0  0  0  0  0  0  0
   -3.0040   -0.0006    1.3641 O   0  0  0  0  0  0  0  0  0  0  0  0
    1.8477   -2.1325   -0.0035 H   0  0  0  0  0  0  0  0  0  0  0  0
   -0.6143   -2.1324   -0.0470 H   0  0  0  0  0  0  0  0  0  0  0  0
   -0.6143    2.1325   -0.0463 H   0  0  0  0  0  0  0  0  0  0  0  0
    1.8476    2.1324    0.0019 H   0  0  0  0  0  0  0  0  0  0  0  0
   -3.9662   -0.0007    1.4608 H   0  0  0  0  0  0  0  0  0  0  0  0
  1  2  2  0  0  0  0
  1  3  1  0  0  0  0
  1  4  1  0  0  0  0
  4  5  2  0  0  0  0
  5  6  1  0  0  0  0
  6  7  2  0  0  0  0
  7  8  1  0  0  0  0
  8  9  2  0  0  0  0
  4  9  1  0  0  0  0
  7 10  1  0  0  0  0
 10 11  2  0  0  0  0
 10 12  2  0  0  0  0
 10 13  1  0  0  0  0
  5 14  1  0  0  0  0
  6 15  1  0  0  0  0
  8 16  1  0  0  0  0
  9 17  1  0  0  0  0
 13 18  1  0  0  0  0
M  CHG  2   1   1   3  -1
M  END
$$$$
