C6H6N2O2
APtclcactv12211716533D 0   0.00000     0.00000
 
 16 16  0  0  0  0  0  0  0  0999 V2000
    2.0970    0.0000    0.0009 N   0  3  0  0  0  0  0  0  0  0  0  0
    2.7060   -1.0548    0.0015 O   0  0  0  0  0  0  0  0  0  0  0  0
    2.7060    1.0548   -0.0040 O   0  5  0  0  0  0  0  0  0  0  0  0
    0.6170    0.0000   -0.0000 C   0  0  0  0  0  0  0  0  0  0  0  0
   -0.0729   -1.1985   -0.0002 C   0  0  0  0  0  0  0  0  0  0  0  0
   -1.4539   -1.2021   -0.0006 C   0  0  0  0  0  0  0  0  0  0  0  0
   -2.1500    0.0000   -0.0008 C   0  0  0  0  0  0  0  0  0  0  0  0
   -3.5468   -0.0000   -0.0007 N   0  0  0  0  0  0  0  0  0  0  0  0
   -1.4539    1.2021   -0.0006 C   0  0  0  0  0  0  0  0  0  0  0  0
   -0.0729    1.1985    0.0051 C   0  0  0  0  0  0  0  0  0  0  0  0
    0.4690   -2.1327   -0.0005 H   0  0  0  0  0  0  0  0  0  0  0  0
   -1.9921   -2.1385   -0.0011 H   0  0  0  0  0  0  0  0  0  0  0  0
   -4.0318   -0.8400   -0.0005 H   0  0  0  0  0  0  0  0  0  0  0  0
   -4.0318    0.8400   -0.0008 H   0  0  0  0  0  0  0  0  0  0  0  0
   -1.9921    2.1385   -0.0007 H   0  0  0  0  0  0  0  0  0  0  0  0
    0.4690    2.1327    0.0053 H   0  0  0  0  0  0  0  0  0  0  0  0
  1  2  2  0  0  0  0
  1  3  1  0  0  0  0
  1  4  1  0  0  0  0
  4  5  2  0  0  0  0
  5  6  1  0  0  0  0
  6  7  2  0  0  0  0
  7  8  1  0  0  0  0
  7  9  1  0  0  0  0
  9 10  2  0  0  0  0
  4 10  1  0  0  0  0
  5 11  1  0  0  0  0
  6 12  1  0  0  0  0
  8 13  1  0  0  0  0
  8 14  1  0  0  0  0
  9 15  1  0  0  0  0
 10 16  1  0  0  0  0
M  CHG  2   1   1   3  -1
M  END
$$$$
