C6H9NO7S
APtclcactv12211716513D 0   0.00000     0.00000
 
 24 22  0  0  0  0  0  0  0  0999 V2000
  -20.7309   -1.3963   -0.3057 O   0  0  0  0  0  0  0  0  0  0  0  0
  -10.8325   -0.3591    0.2788 O   0  0  0  0  0  0  0  0  0  0  0  0
    5.3838   -2.1694   -0.1204 N   0  3  0  0  0  0  0  0  0  0  0  0
    5.2836   -3.2280    0.4735 O   0  0  0  0  0  0  0  0  0  0  0  0
    6.3940   -1.9193   -0.7533 O   0  5  0  0  0  0  0  0  0  0  0  0
    4.2754   -1.1893   -0.0781 C   0  0  0  0  0  0  0  0  0  0  0  0
    3.1266   -1.4755    0.6354 C   0  0  0  0  0  0  0  0  0  0  0  0
    2.0914   -0.5602    0.6749 C   0  0  0  0  0  0  0  0  0  0  0  0
    2.2053    0.6415    0.0012 C   0  0  0  0  0  0  0  0  0  0  0  0
    3.3545    0.9281   -0.7116 C   0  0  0  0  0  0  0  0  0  0  0  0
    4.3914    0.0146   -0.7475 C   0  0  0  0  0  0  0  0  0  0  0  0
    0.8853    1.8077    0.0505 S   0  0  0  0  0  0  0  0  0  0  0  0
    1.0260    2.6221   -1.1054 O   0  0  0  0  0  0  0  0  0  0  0  0
   -0.2927    1.0683    0.3416 O   0  0  0  0  0  0  0  0  0  0  0  0
    1.1302    2.7149    1.2478 O   0  0  0  0  0  0  0  0  0  0  0  0
  -21.0546   -0.5262   -0.5760 H   0  0  0  0  0  0  0  0  0  0  0  0
  -19.8516   -1.6119   -0.6455 H   0  0  0  0  0  0  0  0  0  0  0  0
  -11.1562    0.5111    0.0085 H   0  0  0  0  0  0  0  0  0  0  0  0
   -9.9532   -0.5747   -0.0611 H   0  0  0  0  0  0  0  0  0  0  0  0
    3.0376   -2.4143    1.1617 H   0  0  0  0  0  0  0  0  0  0  0  0
    1.1935   -0.7841    1.2317 H   0  0  0  0  0  0  0  0  0  0  0  0
    3.4433    1.8668   -1.2383 H   0  0  0  0  0  0  0  0  0  0  0  0
    5.2893    0.2385   -1.3044 H   0  0  0  0  0  0  0  0  0  0  0  0
    0.4566    3.3982    1.3678 H   0  0  0  0  0  0  0  0  0  0  0  0
  3  4  2  0  0  0  0
  3  5  1  0  0  0  0
  3  6  1  0  0  0  0
  6  7  2  0  0  0  0
  7  8  1  0  0  0  0
  8  9  2  0  0  0  0
  9 10  1  0  0  0  0
 10 11  2  0  0  0  0
  6 11  1  0  0  0  0
  9 12  1  0  0  0  0
 12 13  2  0  0  0  0
 12 14  2  0  0  0  0
 12 15  1  0  0  0  0
  1 16  1  0  0  0  0
  1 17  1  0  0  0  0
  2 18  1  0  0  0  0
  2 19  1  0  0  0  0
  7 20  1  0  0  0  0
  8 21  1  0  0  0  0
 10 22  1  0  0  0  0
 11 23  1  0  0  0  0
 15 24  1  0  0  0  0
M  CHG  2   3   1   5  -1
M  END
$$$$
