C10H14O
APtclcactv12211717263D 0   0.00000     0.00000
 
 25 25  0  0  0  0  0  0  0  0999 V2000
   -1.9432   -0.0000    0.0045 C   0  0  0  0  0  0  0  0  0  0  0  0
   -2.4601    0.7226   -1.2411 C   0  0  0  0  0  0  0  0  0  0  0  0
   -2.4462    0.7199    1.2573 C   0  0  0  0  0  0  0  0  0  0  0  0
   -2.4532   -1.4425    0.0057 C   0  0  0  0  0  0  0  0  0  0  0  0
   -0.4362    0.0000   -0.0039 C   0  0  0  0  0  0  0  0  0  0  0  0
    0.2539    1.1981   -0.0065 C   0  0  0  0  0  0  0  0  0  0  0  0
    1.6354    1.2008   -0.0142 C   0  0  0  0  0  0  0  0  0  0  0  0
    2.3302    0.0000   -0.0194 C   0  0  0  0  0  0  0  0  0  0  0  0
    1.6354   -1.2008   -0.0168 C   0  0  0  0  0  0  0  0  0  0  0  0
    0.2540   -1.1981   -0.0034 C   0  0  0  0  0  0  0  0  0  0  0  0
    3.6892    0.0000   -0.0274 O   0  0  0  0  0  0  0  0  0  0  0  0
   -2.0968    1.7503   -1.2420 H   0  0  0  0  0  0  0  0  0  0  0  0
   -2.1018    0.2098   -2.1337 H   0  0  0  0  0  0  0  0  0  0  0  0
   -3.5501    0.7226   -1.2350 H   0  0  0  0  0  0  0  0  0  0  0  0
   -3.5362    0.7199    1.2634 H   0  0  0  0  0  0  0  0  0  0  0  0
   -2.0779    0.2050    2.1447 H   0  0  0  0  0  0  0  0  0  0  0  0
   -2.0829    1.7475    1.2565 H   0  0  0  0  0  0  0  0  0  0  0  0
   -2.0948   -1.9554   -0.8868 H   0  0  0  0  0  0  0  0  0  0  0  0
   -2.0849   -1.9573    0.8931 H   0  0  0  0  0  0  0  0  0  0  0  0
   -3.5431   -1.4425    0.0118 H   0  0  0  0  0  0  0  0  0  0  0  0
   -0.2874    2.1326   -0.0028 H   0  0  0  0  0  0  0  0  0  0  0  0
    2.1740    2.1369   -0.0165 H   0  0  0  0  0  0  0  0  0  0  0  0
    2.1740   -2.1369   -0.0208 H   0  0  0  0  0  0  0  0  0  0  0  0
   -0.2874   -2.1326   -0.0014 H   0  0  0  0  0  0  0  0  0  0  0  0
    4.0877   -0.0008    0.8536 H   0  0  0  0  0  0  0  0  0  0  0  0
  1  2  1  0  0  0  0
  1  3  1  0  0  0  0
  1  4  1  0  0  0  0
  1  5  1  0  0  0  0
  5  6  2  0  0  0  0
  6  7  1  0  0  0  0
  7  8  2  0  0  0  0
  8  9  1  0  0  0  0
  9 10  2  0  0  0  0
  5 10  1  0  0  0  0
  8 11  1  0  0  0  0
  2 12  1  0  0  0  0
  2 13  1  0  0  0  0
  2 14  1  0  0  0  0
  3 15  1  0  0  0  0
  3 16  1  0  0  0  0
  3 17  1  0  0  0  0
  4 18  1  0  0  0  0
  4 19  1  0  0  0  0
  4 20  1  0  0  0  0
  6 21  1  0  0  0  0
  7 22  1  0  0  0  0
  9 23  1  0  0  0  0
 10 24  1  0  0  0  0
 11 25  1  0  0  0  0
M  END
$$$$
