C18H14
APtclcactv12211717163D 0   0.00000     0.00000
 
 32 34  0  0  0  0  0  0  0  0999 V2000
    2.8691    0.0027    0.0036 C   0  0  0  0  0  0  0  0  0  0  0  0
    3.5683   -0.9235    0.7756 C   0  0  0  0  0  0  0  0  0  0  0  0
    4.9484   -0.9219    0.7686 C   0  0  0  0  0  0  0  0  0  0  0  0
    5.6377   -0.0036   -0.0028 C   0  0  0  0  0  0  0  0  0  0  0  0
    4.9490    0.9179   -0.7709 C   0  0  0  0  0  0  0  0  0  0  0  0
    3.5690    0.9257   -0.7716 C   0  0  0  0  0  0  0  0  0  0  0  0
    1.3860    0.0021    0.0023 C   0  0  0  0  0  0  0  0  0  0  0  0
    0.6883    1.2095    0.0005 C   0  0  0  0  0  0  0  0  0  0  0  0
   -0.6892    1.2089   -0.0007 C   0  0  0  0  0  0  0  0  0  0  0  0
   -1.3860    0.0010   -0.0006 C   0  0  0  0  0  0  0  0  0  0  0  0
   -0.6883   -1.2064    0.0003 C   0  0  0  0  0  0  0  0  0  0  0  0
    0.6893   -1.2058   -0.0030 C   0  0  0  0  0  0  0  0  0  0  0  0
   -2.8691    0.0004   -0.0009 C   0  0  0  0  0  0  0  0  0  0  0  0
   -3.5681   -0.9273   -0.7713 C   0  0  0  0  0  0  0  0  0  0  0  0
   -4.9482   -0.9235   -0.7673 C   0  0  0  0  0  0  0  0  0  0  0  0
   -5.6377   -0.0013   -0.0007 C   0  0  0  0  0  0  0  0  0  0  0  0
   -4.9492    0.9217    0.7658 C   0  0  0  0  0  0  0  0  0  0  0  0
   -3.5692    0.9238    0.7737 C   0  0  0  0  0  0  0  0  0  0  0  0
    3.0311   -1.6407    1.3785 H   0  0  0  0  0  0  0  0  0  0  0  0
    5.4912   -1.6389    1.3666 H   0  0  0  0  0  0  0  0  0  0  0  0
    6.7177   -0.0058   -0.0050 H   0  0  0  0  0  0  0  0  0  0  0  0
    5.4923    1.6329   -1.3709 H   0  0  0  0  0  0  0  0  0  0  0  0
    3.0323    1.6454   -1.3720 H   0  0  0  0  0  0  0  0  0  0  0  0
    1.2279    2.1450    0.0004 H   0  0  0  0  0  0  0  0  0  0  0  0
   -1.2296    2.1440   -0.0014 H   0  0  0  0  0  0  0  0  0  0  0  0
   -1.2279   -2.1419    0.0007 H   0  0  0  0  0  0  0  0  0  0  0  0
    1.2296   -2.1409   -0.0023 H   0  0  0  0  0  0  0  0  0  0  0  0
   -3.0308   -1.6475   -1.3705 H   0  0  0  0  0  0  0  0  0  0  0  0
   -5.4908   -1.6416   -1.3642 H   0  0  0  0  0  0  0  0  0  0  0  0
   -6.7177   -0.0018   -0.0009 H   0  0  0  0  0  0  0  0  0  0  0  0
   -5.4927    1.6396    1.3621 H   0  0  0  0  0  0  0  0  0  0  0  0
   -3.0326    1.6446    1.3728 H   0  0  0  0  0  0  0  0  0  0  0  0
  1  2  2  0  0  0  0
  2  3  1  0  0  0  0
  3  4  2  0  0  0  0
  4  5  1  0  0  0  0
  5  6  2  0  0  0  0
  1  6  1  0  0  0  0
  1  7  1  0  0  0  0
  7  8  2  0  0  0  0
  8  9  1  0  0  0  0
  9 10  2  0  0  0  0
 10 11  1  0  0  0  0
 11 12  2  0  0  0  0
  7 12  1  0  0  0  0
 10 13  1  0  0  0  0
 13 14  2  0  0  0  0
 14 15  1  0  0  0  0
 15 16  2  0  0  0  0
 16 17  1  0  0  0  0
 17 18  2  0  0  0  0
 13 18  1  0  0  0  0
  2 19  1  0  0  0  0
  3 20  1  0  0  0  0
  4 21  1  0  0  0  0
  5 22  1  0  0  0  0
  6 23  1  0  0  0  0
  8 24  1  0  0  0  0
  9 25  1  0  0  0  0
 11 26  1  0  0  0  0
 12 27  1  0  0  0  0
 14 28  1  0  0  0  0
 15 29  1  0  0  0  0
 16 30  1  0  0  0  0
 17 31  1  0  0  0  0
 18 32  1  0  0  0  0
M  END
$$$$
