C11H16O
APtclcactv12111704483D 0   0.00000     0.00000
 
 28 28  0  0  0  0  0  0  0  0999 V2000
   -1.5734    0.2814    0.0023 C   0  0  0  0  0  0  0  0  0  0  0  0
   -2.0147    1.0542   -1.2423 C   0  0  0  0  0  0  0  0  0  0  0  0
   -2.0033    1.0454    1.2562 C   0  0  0  0  0  0  0  0  0  0  0  0
   -2.2246   -1.1031    0.0004 C   0  0  0  0  0  0  0  0  0  0  0  0
   -3.7470   -0.9507    0.0078 C   0  0  0  0  0  0  0  0  0  0  0  0
   -0.0739    0.1312   -0.0050 C   0  0  0  0  0  0  0  0  0  0  0  0
    0.7322    1.2546   -0.0047 C   0  0  0  0  0  0  0  0  0  0  0  0
    2.1070    1.1196   -0.0114 C   0  0  0  0  0  0  0  0  0  0  0  0
    2.6787   -0.1444   -0.0185 C   0  0  0  0  0  0  0  0  0  0  0  0
    1.8677   -1.2700   -0.0187 C   0  0  0  0  0  0  0  0  0  0  0  0
    0.4934   -1.1297   -0.0063 C   0  0  0  0  0  0  0  0  0  0  0  0
    4.0309   -0.2798   -0.0255 O   0  0  0  0  0  0  0  0  0  0  0  0
   -1.5507    2.0406   -1.2409 H   0  0  0  0  0  0  0  0  0  0  0  0
   -1.7084    0.5099   -2.1355 H   0  0  0  0  0  0  0  0  0  0  0  0
   -3.0992    1.1628   -1.2370 H   0  0  0  0  0  0  0  0  0  0  0  0
   -3.0879    1.1540    1.2615 H   0  0  0  0  0  0  0  0  0  0  0  0
   -1.6890    0.4948    2.1428 H   0  0  0  0  0  0  0  0  0  0  0  0
   -1.5394    2.0318    1.2576 H   0  0  0  0  0  0  0  0  0  0  0  0
   -1.9183   -1.6475   -0.8929 H   0  0  0  0  0  0  0  0  0  0  0  0
   -1.9103   -1.6537    0.8870 H   0  0  0  0  0  0  0  0  0  0  0  0
   -4.0533   -0.4063    0.9011 H   0  0  0  0  0  0  0  0  0  0  0  0
   -4.0613   -0.4001   -0.8788 H   0  0  0  0  0  0  0  0  0  0  0  0
   -4.2109   -1.9370    0.0064 H   0  0  0  0  0  0  0  0  0  0  0  0
    0.2866    2.2384    0.0004 H   0  0  0  0  0  0  0  0  0  0  0  0
    2.7362    1.9974   -0.0115 H   0  0  0  0  0  0  0  0  0  0  0  0
    2.3103   -2.2551   -0.0242 H   0  0  0  0  0  0  0  0  0  0  0  0
   -0.1384   -2.0056   -0.0065 H   0  0  0  0  0  0  0  0  0  0  0  0
    4.4266   -0.3220    0.8558 H   0  0  0  0  0  0  0  0  0  0  0  0
  1  2  1  0  0  0  0
  1  3  1  0  0  0  0
  1  4  1  0  0  0  0
  4  5  1  0  0  0  0
  1  6  1  0  0  0  0
  6  7  2  0  0  0  0
  7  8  1  0  0  0  0
  8  9  2  0  0  0  0
  9 10  1  0  0  0  0
 10 11  2  0  0  0  0
  6 11  1  0  0  0  0
  9 12  1  0  0  0  0
  2 13  1  0  0  0  0
  2 14  1  0  0  0  0
  2 15  1  0  0  0  0
  3 16  1  0  0  0  0
  3 17  1  0  0  0  0
  3 18  1  0  0  0  0
  4 19  1  0  0  0  0
  4 20  1  0  0  0  0
  5 21  1  0  0  0  0
  5 22  1  0  0  0  0
  5 23  1  0  0  0  0
  7 24  1  0  0  0  0
  8 25  1  0  0  0  0
 10 26  1  0  0  0  0
 11 27  1  0  0  0  0
 12 28  1  0  0  0  0
M  END
$$$$
