C8H8O2
APtclcactv12151716283D 0   0.00000     0.00000
 
 18 18  0  0  0  0  0  0  0  0999 V2000
   -2.1638    0.0225    0.0020 C   0  0  0  0  0  0  0  0  0  0  0  0
   -1.4998   -1.1914    0.0014 C   0  0  0  0  0  0  0  0  0  0  0  0
   -0.1208   -1.2269    0.0005 C   0  0  0  0  0  0  0  0  0  0  0  0
    0.6050   -0.0341    0.0001 C   0  0  0  0  0  0  0  0  0  0  0  0
   -0.0714    1.1874    0.0007 C   0  0  0  0  0  0  0  0  0  0  0  0
   -1.4507    1.2083    0.0016 C   0  0  0  0  0  0  0  0  0  0  0  0
    2.0820   -0.0644   -0.0005 C   0  0  0  0  0  0  0  0  0  0  0  0
    2.6677   -1.1285   -0.0006 O   0  0  0  0  0  0  0  0  0  0  0  0
    2.7793    1.0882   -0.0008 O   0  0  0  0  0  0  0  0  0  0  0  0
   -3.6705    0.0534   -0.0032 C   0  0  0  0  0  0  0  0  0  0  0  0
   -2.0625   -2.1133    0.0021 H   0  0  0  0  0  0  0  0  0  0  0  0
    0.3962   -2.1751    0.0004 H   0  0  0  0  0  0  0  0  0  0  0  0
    0.4840    2.1136    0.0008 H   0  0  0  0  0  0  0  0  0  0  0  0
   -1.9752    2.1524    0.0021 H   0  0  0  0  0  0  0  0  0  0  0  0
    3.7437    1.0179   -0.0012 H   0  0  0  0  0  0  0  0  0  0  0  0
   -4.0373    0.0583    1.0232 H   0  0  0  0  0  0  0  0  0  0  0  0
   -4.0137    0.9519   -0.5161 H   0  0  0  0  0  0  0  0  0  0  0  0
   -4.0501   -0.8277   -0.5205 H   0  0  0  0  0  0  0  0  0  0  0  0
  1  2  2  0  0  0  0
  2  3  1  0  0  0  0
  3  4  2  0  0  0  0
  4  5  1  0  0  0  0
  5  6  2  0  0  0  0
  1  6  1  0  0  0  0
  4  7  1  0  0  0  0
  7  8  2  0  0  0  0
  7  9  1  0  0  0  0
  1 10  1  0  0  0  0
  2 11  1  0  0  0  0
  3 12  1  0  0  0  0
  5 13  1  0  0  0  0
  6 14  1  0  0  0  0
  9 15  1  0  0  0  0
 10 16  1  0  0  0  0
 10 17  1  0  0  0  0
 10 18  1  0  0  0  0
M  END
$$$$
