C7H9NO2S
APtclcactv12151716193D 0   0.00000     0.00000
 
 20 20  0  0  0  0  0  0  0  0999 V2000
   -2.7160   -0.0000   -0.0227 C   0  0  0  0  0  0  0  0  0  0  0  0
   -2.0251   -1.1972   -0.0040 C   0  0  0  0  0  0  0  0  0  0  0  0
   -0.6433   -1.1971    0.0340 C   0  0  0  0  0  0  0  0  0  0  0  0
    0.0476    0.0000    0.0529 C   0  0  0  0  0  0  0  0  0  0  0  0
   -0.6433    1.1972    0.0333 C   0  0  0  0  0  0  0  0  0  0  0  0
   -2.0251    1.1971   -0.0033 C   0  0  0  0  0  0  0  0  0  0  0  0
    1.8089    0.0001    0.1026 S   0  0  0  0  0  0  0  0  0  0  0  0
    2.1947    1.2501    0.6575 O   0  0  0  0  0  0  0  0  0  0  0  0
    2.1947   -1.2494    0.6588 O   0  0  0  0  0  0  0  0  0  0  0  0
    2.3435   -0.0007   -1.4647 N   0  0  0  0  0  0  0  0  0  0  0  0
   -4.2223   -0.0000   -0.0705 C   0  0  0  0  0  0  0  0  0  0  0  0
   -2.5649   -2.1325   -0.0188 H   0  0  0  0  0  0  0  0  0  0  0  0
   -0.1035   -2.1324    0.0494 H   0  0  0  0  0  0  0  0  0  0  0  0
   -0.1035    2.1325    0.0488 H   0  0  0  0  0  0  0  0  0  0  0  0
   -2.5649    2.1324   -0.0183 H   0  0  0  0  0  0  0  0  0  0  0  0
    1.7050   -0.0011   -2.1949 H   0  0  0  0  0  0  0  0  0  0  0  0
    3.2952   -0.0008   -1.6526 H   0  0  0  0  0  0  0  0  0  0  0  0
   -4.6180   -0.0028    0.9451 H   0  0  0  0  0  0  0  0  0  0  0  0
   -4.5692    0.8913   -0.5932 H   0  0  0  0  0  0  0  0  0  0  0  0
   -4.5690   -0.8886   -0.5980 H   0  0  0  0  0  0  0  0  0  0  0  0
  1  2  2  0  0  0  0
  2  3  1  0  0  0  0
  3  4  2  0  0  0  0
  4  5  1  0  0  0  0
  5  6  2  0  0  0  0
  1  6  1  0  0  0  0
  4  7  1  0  0  0  0
  7  8  2  0  0  0  0
  7  9  2  0  0  0  0
  7 10  1  0  0  0  0
  1 11  1  0  0  0  0
  2 12  1  0  0  0  0
  3 13  1  0  0  0  0
  5 14  1  0  0  0  0
  6 15  1  0  0  0  0
 10 16  1  0  0  0  0
 10 17  1  0  0  0  0
 11 18  1  0  0  0  0
 11 19  1  0  0  0  0
 11 20  1  0  0  0  0
M  END
$$$$
