C8H7NS
APtclcactv12151716273D 0   0.00000     0.00000
 
 17 17  0  0  0  0  0  0  0  0999 V2000
   -2.5357    0.3445    0.0020 C   0  0  0  0  0  0  0  0  0  0  0  0
   -2.3388   -1.0307    0.0010 C   0  0  0  0  0  0  0  0  0  0  0  0
   -1.0763   -1.5460   -0.0000 C   0  0  0  0  0  0  0  0  0  0  0  0
    0.0389   -0.6697    0.0000 C   0  0  0  0  0  0  0  0  0  0  0  0
   -0.1790    0.7317    0.0011 C   0  0  0  0  0  0  0  0  0  0  0  0
   -1.4537    1.2160    0.0021 C   0  0  0  0  0  0  0  0  0  0  0  0
    1.2717   -1.1553   -0.0005 N   0  0  0  0  0  0  0  0  0  0  0  0
    2.2500   -0.3772   -0.0005 C   0  0  0  0  0  0  0  0  0  0  0  0
    3.4658    0.5899   -0.0004 S   0  0  0  0  0  0  0  0  0  0  0  0
   -3.9378    0.8969   -0.0032 C   0  0  0  0  0  0  0  0  0  0  0  0
   -3.1901   -1.6952    0.0013 H   0  0  0  0  0  0  0  0  0  0  0  0
   -0.9263   -2.6155   -0.0005 H   0  0  0  0  0  0  0  0  0  0  0  0
    0.6601    1.4117    0.0012 H   0  0  0  0  0  0  0  0  0  0  0  0
   -1.6231    2.2826    0.0025 H   0  0  0  0  0  0  0  0  0  0  0  0
   -4.2802    1.0286    1.0232 H   0  0  0  0  0  0  0  0  0  0  0  0
   -3.9474    1.8588   -0.5157 H   0  0  0  0  0  0  0  0  0  0  0  0
   -4.5998    0.2027   -0.5208 H   0  0  0  0  0  0  0  0  0  0  0  0
  1  2  2  0  0  0  0
  2  3  1  0  0  0  0
  3  4  2  0  0  0  0
  4  5  1  0  0  0  0
  5  6  2  0  0  0  0
  1  6  1  0  0  0  0
  4  7  1  0  0  0  0
  7  8  2  0  0  0  0
  8  9  2  0  0  0  0
  1 10  1  0  0  0  0
  2 11  1  0  0  0  0
  3 12  1  0  0  0  0
  5 13  1  0  0  0  0
  6 14  1  0  0  0  0
 10 15  1  0  0  0  0
 10 16  1  0  0  0  0
 10 17  1  0  0  0  0
M  END
$$$$
