C7H8O3S
APtclcactv12151716183D 0   0.00000     0.00000
 
 19 19  0  0  0  0  0  0  0  0999 V2000
   -2.7290   -0.0000   -0.0201 C   0  0  0  0  0  0  0  0  0  0  0  0
   -2.0380   -1.1972   -0.0044 C   0  0  0  0  0  0  0  0  0  0  0  0
   -0.6561   -1.1971    0.0278 C   0  0  0  0  0  0  0  0  0  0  0  0
    0.0349    0.0000    0.0437 C   0  0  0  0  0  0  0  0  0  0  0  0
   -0.6561    1.1972    0.0271 C   0  0  0  0  0  0  0  0  0  0  0  0
   -2.0381    1.1971   -0.0036 C   0  0  0  0  0  0  0  0  0  0  0  0
    1.7964    0.0000    0.0859 S   0  0  0  0  0  0  0  0  0  0  0  0
    2.1845    1.2500    0.6392 O   0  0  0  0  0  0  0  0  0  0  0  0
    2.1845   -1.2494    0.6403 O   0  0  0  0  0  0  0  0  0  0  0  0
    2.2816   -0.0006   -1.3567 O   0  0  0  0  0  0  0  0  0  0  0  0
   -4.2355   -0.0000   -0.0615 C   0  0  0  0  0  0  0  0  0  0  0  0
   -2.5779   -2.1325   -0.0169 H   0  0  0  0  0  0  0  0  0  0  0  0
   -0.1162   -2.1324    0.0407 H   0  0  0  0  0  0  0  0  0  0  0  0
   -0.1162    2.1325    0.0403 H   0  0  0  0  0  0  0  0  0  0  0  0
   -2.5779    2.1324   -0.0162 H   0  0  0  0  0  0  0  0  0  0  0  0
    3.2443   -0.0007   -1.4479 H   0  0  0  0  0  0  0  0  0  0  0  0
   -4.6269   -0.0028    0.9558 H   0  0  0  0  0  0  0  0  0  0  0  0
   -4.5846    0.8913   -0.5826 H   0  0  0  0  0  0  0  0  0  0  0  0
   -4.5845   -0.8886   -0.5875 H   0  0  0  0  0  0  0  0  0  0  0  0
  1  2  2  0  0  0  0
  2  3  1  0  0  0  0
  3  4  2  0  0  0  0
  4  5  1  0  0  0  0
  5  6  2  0  0  0  0
  1  6  1  0  0  0  0
  4  7  1  0  0  0  0
  7  8  2  0  0  0  0
  7  9  2  0  0  0  0
  7 10  1  0  0  0  0
  1 11  1  0  0  0  0
  2 12  1  0  0  0  0
  3 13  1  0  0  0  0
  5 14  1  0  0  0  0
  6 15  1  0  0  0  0
 10 16  1  0  0  0  0
 11 17  1  0  0  0  0
 11 18  1  0  0  0  0
 11 19  1  0  0  0  0
M  END
$$$$
