C6H12O3
APtclcactv12211716583D 0   0.00000     0.00000
 
 21 21  0  0  0  0  0  0  0  0999 V2000
    2.4133   -1.3410    0.0121 C   0  0  0  0  0  0  0  0  0  0  0  0
    0.0000    2.1278    0.8913 C   0  0  0  0  0  0  0  0  0  0  0  0
   -2.4134   -1.3409    0.0121 C   0  0  0  0  0  0  0  0  0  0  0  0
    1.1966   -0.4609    0.3052 C   0  0  0  0  0  0  0  0  0  0  0  0
    0.0000    1.4560   -0.4833 C   0  0  0  0  0  0  0  0  0  0  0  0
   -1.1967   -0.4608    0.3052 C   0  0  0  0  0  0  0  0  0  0  0  0
    1.1651    0.6349   -0.6153 O   0  0  0  0  0  0  0  0  0  0  0  0
   -0.0001   -1.2313    0.1523 O   0  0  0  0  0  0  0  0  0  0  0  0
   -1.1651    0.6350   -0.6153 O   0  0  0  0  0  0  0  0  0  0  0  0
    1.2592   -0.0795    1.3244 H   0  0  0  0  0  0  0  0  0  0  0  0
    3.3232   -0.7507    0.1198 H   0  0  0  0  0  0  0  0  0  0  0  0
    2.4360   -2.1749    0.7137 H   0  0  0  0  0  0  0  0  0  0  0  0
    2.3475   -1.7246   -1.0061 H   0  0  0  0  0  0  0  0  0  0  0  0
    0.0010    2.2186   -1.2621 H   0  0  0  0  0  0  0  0  0  0  0  0
   -1.2574   -0.0794    1.3245 H   0  0  0  0  0  0  0  0  0  0  0  0
    0.8924    2.7454    0.9939 H   0  0  0  0  0  0  0  0  0  0  0  0
   -0.8876    2.7527    0.9903 H   0  0  0  0  0  0  0  0  0  0  0  0
   -0.0046    1.3641    1.6690 H   0  0  0  0  0  0  0  0  0  0  0  0
   -2.4311   -2.1798    0.7078 H   0  0  0  0  0  0  0  0  0  0  0  0
   -3.3238   -0.7529    0.1289 H   0  0  0  0  0  0  0  0  0  0  0  0
   -2.3523   -1.7170   -1.0091 H   0  0  0  0  0  0  0  0  0  0  0  0
  1  4  1  0  0  0  0
  4  7  1  0  0  0  0
  4  8  1  0  0  0  0
  5  7  1  0  0  0  0
  6  8  1  0  0  0  0
  2  5  1  0  0  0  0
  5  9  1  0  0  0  0
  6  9  1  0  0  0  0
  3  6  1  0  0  0  0
  4 10  1  0  0  0  0
  1 11  1  0  0  0  0
  1 12  1  0  0  0  0
  1 13  1  0  0  0  0
  5 14  1  0  0  0  0
  6 15  1  0  0  0  0
  2 16  1  0  0  0  0
  2 17  1  0  0  0  0
  2 18  1  0  0  0  0
  3 19  1  0  0  0  0
  3 20  1  0  0  0  0
  3 21  1  0  0  0  0
M  END
$$$$
