C3H2N2O3
APtclcactv12101715353D 0   0.00000     0.00000
 
 10 10  0  0  0  0  0  0  0  0999 V2000
    0.8820    2.0200    0.0018 H   0  0  0  0  0  0  0  0  0  0  0  0
    0.8819   -2.0200   -0.0011 H   0  0  0  0  0  0  0  0  0  0  0  0
   -1.7190    1.4847   -0.0017 O   0  0  0  0  0  0  0  0  0  0  0  0
   -1.7190   -1.4847    0.0003 O   0  0  0  0  0  0  0  0  0  0  0  0
    2.5195   -0.0000   -0.0008 O   0  0  0  0  0  0  0  0  0  0  0  0
   -0.7539    0.7499    0.0016 C   0  0  0  0  0  0  0  0  0  0  0  0
   -0.7539   -0.7499    0.0002 C   0  0  0  0  0  0  0  0  0  0  0  0
    1.3047   -0.0000    0.0001 C   0  0  0  0  0  0  0  0  0  0  0  0
    0.5480    1.1093    0.0014 N   0  0  0  0  0  0  0  0  0  0  0  0
    0.5480   -1.1093   -0.0006 N   0  0  0  0  0  0  0  0  0  0  0  0
  6  7  1  0  0  0  0
  6  9  1  0  0  0  0
  3  6  2  0  0  0  0
  7 10  1  0  0  0  0
  4  7  2  0  0  0  0
  8  9  1  0  0  0  0
  8 10  1  0  0  0  0
  5  8  2  0  0  0  0
  1  9  1  0  0  0  0
  2 10  1  0  0  0  0
M  END
$$$$
