C10H14NO5PS
APtclcactv12211717263D 0   0.00000     0.00000
 
 32 32  0  0  0  0  0  0  0  0999 V2000
    1.2163    0.6908    1.1697 C   0  0  0  0  0  0  0  0  0  0  0  0
    1.1228   -1.5585    0.3334 C   0  0  0  0  0  0  0  0  0  0  0  0
    2.5423    0.7735    0.7911 C   0  0  0  0  0  0  0  0  0  0  0  0
    2.4490   -1.4707   -0.0434 C   0  0  0  0  0  0  0  0  0  0  0  0
   -4.4009   -0.6181   -0.3757 C   0  0  0  0  0  0  0  0  0  0  0  0
   -0.7669    2.2423   -0.5560 C   0  0  0  0  0  0  0  0  0  0  0  0
   -5.6602   -1.1462    0.3143 C   0  0  0  0  0  0  0  0  0  0  0  0
   -1.0713    3.7402   -0.4889 C   0  0  0  0  0  0  0  0  0  0  0  0
    0.5026   -0.4768    0.9415 C   0  0  0  0  0  0  0  0  0  0  0  0
    3.1581   -0.3060    0.1852 C   0  0  0  0  0  0  0  0  0  0  0  0
    5.1222   -1.1648   -0.7538 O   0  0  0  0  0  0  0  0  0  0  0  0
   -0.8018   -0.5609    1.3135 O   0  0  0  0  0  0  0  0  0  0  0  0
   -3.3200   -0.5947    0.5588 O   0  0  0  0  0  0  0  0  0  0  0  0
   -1.8276    1.5124    0.0638 O   0  0  0  0  0  0  0  0  0  0  0  0
    5.2043    0.8112   -0.0195 O   0  5  0  0  0  0  0  0  0  0  0  0
   -1.8391   -0.0938    0.1742 P   0  0  0  0  0  0  0  0  0  0  0  0
    4.5787   -0.2145   -0.2200 N   0  3  0  0  0  0  0  0  0  0  0  0
   -1.3388   -0.8325   -1.4619 S   0  0  0  0  0  0  0  0  0  0  0  0
    0.7370    1.5327    1.6470 H   0  0  0  0  0  0  0  0  0  0  0  0
    0.5692   -2.4684    0.1544 H   0  0  0  0  0  0  0  0  0  0  0  0
    3.0983    1.6823    0.9682 H   0  0  0  0  0  0  0  0  0  0  0  0
    2.9323   -2.3127   -0.5165 H   0  0  0  0  0  0  0  0  0  0  0  0
   -4.1445   -1.2690   -1.2116 H   0  0  0  0  0  0  0  0  0  0  0  0
   -4.5846    0.3912   -0.7441 H   0  0  0  0  0  0  0  0  0  0  0  0
   -0.6759    1.9364   -1.5982 H   0  0  0  0  0  0  0  0  0  0  0  0
    0.1681    2.0379   -0.0344 H   0  0  0  0  0  0  0  0  0  0  0  0
   -6.4847   -1.1641   -0.3985 H   0  0  0  0  0  0  0  0  0  0  0  0
   -5.4766   -2.1555    0.6827 H   0  0  0  0  0  0  0  0  0  0  0  0
   -5.9167   -0.4953    1.1502 H   0  0  0  0  0  0  0  0  0  0  0  0
   -2.0063    3.9447   -1.0105 H   0  0  0  0  0  0  0  0  0  0  0  0
   -1.1623    4.0461    0.5534 H   0  0  0  0  0  0  0  0  0  0  0  0
   -0.2623    4.2970   -0.9616 H   0  0  0  0  0  0  0  0  0  0  0  0
 16 18  2  0  0  0  0
 12 16  1  0  0  0  0
 13 16  1  0  0  0  0
 14 16  1  0  0  0  0
  9 12  1  0  0  0  0
  5 13  1  0  0  0  0
  6 14  1  0  0  0  0
 15 17  1  0  0  0  0
 11 17  2  0  0  0  0
 10 17  1  0  0  0  0
  1  9  2  0  0  0  0
  2  9  1  0  0  0  0
  3 10  2  0  0  0  0
  4 10  1  0  0  0  0
  1  3  1  0  0  0  0
  2  4  2  0  0  0  0
  5  7  1  0  0  0  0
  6  8  1  0  0  0  0
  1 19  1  0  0  0  0
  2 20  1  0  0  0  0
  3 21  1  0  0  0  0
  4 22  1  0  0  0  0
  5 23  1  0  0  0  0
  5 24  1  0  0  0  0
  6 25  1  0  0  0  0
  6 26  1  0  0  0  0
  7 27  1  0  0  0  0
  7 28  1  0  0  0  0
  7 29  1  0  0  0  0
  8 30  1  0  0  0  0
  8 31  1  0  0  0  0
  8 32  1  0  0  0  0
M  CHG  2  15  -1  17   1
M  END
$$$$
