C10H21NOS
APtclcactv12211717303D 0   0.00000     0.00000
 
 34 33  0  0  0  0  0  0  0  0999 V2000
    2.1696   -0.3054   -0.7084 C   0  0  0  0  0  0  0  0  0  0  0  0
    0.8518   -2.0245    0.6133 C   0  0  0  0  0  0  0  0  0  0  0  0
    2.9057    0.5661    0.3111 C   0  0  0  0  0  0  0  0  0  0  0  0
   -2.8284    0.7648   -0.1231 C   0  0  0  0  0  0  0  0  0  0  0  0
    4.2286    1.0463   -0.2891 C   0  0  0  0  0  0  0  0  0  0  0  0
   -4.2488    0.4954    0.3778 C   0  0  0  0  0  0  0  0  0  0  0  0
    0.5388   -3.1743   -0.3464 C   0  0  0  0  0  0  0  0  0  0  0  0
    4.9648    1.9178    0.7304 C   0  0  0  0  0  0  0  0  0  0  0  0
   -5.1699    1.6345   -0.0637 C   0  0  0  0  0  0  0  0  0  0  0  0
   -0.1728    1.0156   -0.9121 O   0  0  0  0  0  0  0  0  0  0  0  0
   -0.2153   -0.0298   -0.2920 C   0  0  0  0  0  0  0  0  0  0  0  0
   -1.7388   -0.5828    0.3992 S   0  0  0  0  0  0  0  0  0  0  0  0
    0.9029   -0.7652   -0.1337 N   0  0  0  0  0  0  0  0  0  0  0  0
    1.9702    0.2772   -1.6078 H   0  0  0  0  0  0  0  0  0  0  0  0
    2.7870   -1.1669   -0.9631 H   0  0  0  0  0  0  0  0  0  0  0  0
    0.0736   -1.9642    1.3742 H   0  0  0  0  0  0  0  0  0  0  0  0
    1.8148   -2.2025    1.0917 H   0  0  0  0  0  0  0  0  0  0  0  0
    2.2884    1.4275    0.5658 H   0  0  0  0  0  0  0  0  0  0  0  0
    3.1051   -0.0166    1.2105 H   0  0  0  0  0  0  0  0  0  0  0  0
   -0.4243   -2.9963   -0.8248 H   0  0  0  0  0  0  0  0  0  0  0  0
    1.3169   -3.2345   -1.1073 H   0  0  0  0  0  0  0  0  0  0  0  0
    0.5007   -4.1112    0.2094 H   0  0  0  0  0  0  0  0  0  0  0  0
   -2.8327    0.8276   -1.2113 H   0  0  0  0  0  0  0  0  0  0  0  0
   -2.4685    1.7054    0.2937 H   0  0  0  0  0  0  0  0  0  0  0  0
    4.8460    0.1848   -0.5438 H   0  0  0  0  0  0  0  0  0  0  0  0
    4.0292    1.6289   -1.1885 H   0  0  0  0  0  0  0  0  0  0  0  0
   -4.6088   -0.4453   -0.0390 H   0  0  0  0  0  0  0  0  0  0  0  0
   -4.2445    0.4326    1.4660 H   0  0  0  0  0  0  0  0  0  0  0  0
    5.1641    1.3351    1.6298 H   0  0  0  0  0  0  0  0  0  0  0  0
    5.9072    2.2599    0.3028 H   0  0  0  0  0  0  0  0  0  0  0  0
    4.3474    2.7792    0.9851 H   0  0  0  0  0  0  0  0  0  0  0  0
   -5.1742    1.6973   -1.1519 H   0  0  0  0  0  0  0  0  0  0  0  0
   -6.1818    1.4426    0.2931 H   0  0  0  0  0  0  0  0  0  0  0  0
   -4.8100    2.5751    0.3531 H   0  0  0  0  0  0  0  0  0  0  0  0
 11 13  1  0  0  0  0
  1 13  1  0  0  0  0
  2 13  1  0  0  0  0
 11 12  1  0  0  0  0
 10 11  2  0  0  0  0
  1  3  1  0  0  0  0
  2  7  1  0  0  0  0
  4 12  1  0  0  0  0
  3  5  1  0  0  0  0
  4  6  1  0  0  0  0
  5  8  1  0  0  0  0
  6  9  1  0  0  0  0
  1 14  1  0  0  0  0
  1 15  1  0  0  0  0
  2 16  1  0  0  0  0
  2 17  1  0  0  0  0
  3 18  1  0  0  0  0
  3 19  1  0  0  0  0
  7 20  1  0  0  0  0
  7 21  1  0  0  0  0
  7 22  1  0  0  0  0
  4 23  1  0  0  0  0
  4 24  1  0  0  0  0
  5 25  1  0  0  0  0
  5 26  1  0  0  0  0
  6 27  1  0  0  0  0
  6 28  1  0  0  0  0
  8 29  1  0  0  0  0
  8 30  1  0  0  0  0
  8 31  1  0  0  0  0
  9 32  1  0  0  0  0
  9 33  1  0  0  0  0
  9 34  1  0  0  0  0
M  END
$$$$
