C9H18O2
APtclcactv12151716523D 0   0.00000     0.00000
 
 29 28  0  0  0  0  0  0  0  0999 V2000
    3.9239    0.1010   -0.0014 C   0  0  0  0  0  0  0  0  0  0  0  0
    2.6628   -0.7241   -0.0017 C   0  0  0  0  0  0  0  0  0  0  0  0
    1.4462    0.2038   -0.0008 C   0  0  0  0  0  0  0  0  0  0  0  0
    0.1659   -0.6339   -0.0011 C   0  0  0  0  0  0  0  0  0  0  0  0
   -1.0506    0.2940   -0.0001 C   0  0  0  0  0  0  0  0  0  0  0  0
   -2.3309   -0.5436   -0.0005 C   0  0  0  0  0  0  0  0  0  0  0  0
   -3.5475    0.3842    0.0005 C   0  0  0  0  0  0  0  0  0  0  0  0
   -4.8278   -0.4534    0.0002 C   0  0  0  0  0  0  0  0  0  0  0  0
   -6.0443    0.4745    0.0011 C   0  0  0  0  0  0  0  0  0  0  0  0
    3.8565    1.3074   -0.0005 O   0  0  0  0  0  0  0  0  0  0  0  0
    5.1219   -0.5043    0.0035 O   0  0  0  0  0  0  0  0  0  0  0  0
    2.6398   -1.3523   -0.8922 H   0  0  0  0  0  0  0  0  0  0  0  0
    2.6402   -1.3536    0.8878 H   0  0  0  0  0  0  0  0  0  0  0  0
    1.4692    0.8320    0.8897 H   0  0  0  0  0  0  0  0  0  0  0  0
    1.4688    0.8333   -0.8903 H   0  0  0  0  0  0  0  0  0  0  0  0
    0.1430   -1.2621   -0.8915 H   0  0  0  0  0  0  0  0  0  0  0  0
    0.1434   -1.2634    0.8884 H   0  0  0  0  0  0  0  0  0  0  0  0
   -1.0277    0.9223    0.8903 H   0  0  0  0  0  0  0  0  0  0  0  0
   -1.0281    0.9236   -0.8897 H   0  0  0  0  0  0  0  0  0  0  0  0
   -2.3539   -1.1719   -0.8909 H   0  0  0  0  0  0  0  0  0  0  0  0
   -2.3534   -1.1732    0.8891 H   0  0  0  0  0  0  0  0  0  0  0  0
   -3.5245    1.0125    0.8909 H   0  0  0  0  0  0  0  0  0  0  0  0
   -3.5249    1.0138   -0.8890 H   0  0  0  0  0  0  0  0  0  0  0  0
   -4.8507   -1.0817   -0.8903 H   0  0  0  0  0  0  0  0  0  0  0  0
   -4.8503   -1.0830    0.8897 H   0  0  0  0  0  0  0  0  0  0  0  0
   -6.0214    1.1027    0.8916 H   0  0  0  0  0  0  0  0  0  0  0  0
   -6.0218    1.1040   -0.8884 H   0  0  0  0  0  0  0  0  0  0  0  0
   -6.9564   -0.1223    0.0009 H   0  0  0  0  0  0  0  0  0  0  0  0
    5.9023    0.0667    0.0034 H   0  0  0  0  0  0  0  0  0  0  0  0
  1  2  1  0  0  0  0
  2  3  1  0  0  0  0
  3  4  1  0  0  0  0
  4  5  1  0  0  0  0
  5  6  1  0  0  0  0
  6  7  1  0  0  0  0
  7  8  1  0  0  0  0
  8  9  1  0  0  0  0
  1 10  2  0  0  0  0
  1 11  1  0  0  0  0
  2 12  1  0  0  0  0
  2 13  1  0  0  0  0
  3 14  1  0  0  0  0
  3 15  1  0  0  0  0
  4 16  1  0  0  0  0
  4 17  1  0  0  0  0
  5 18  1  0  0  0  0
  5 19  1  0  0  0  0
  6 20  1  0  0  0  0
  6 21  1  0  0  0  0
  7 22  1  0  0  0  0
  7 23  1  0  0  0  0
  8 24  1  0  0  0  0
  8 25  1  0  0  0  0
  9 26  1  0  0  0  0
  9 27  1  0  0  0  0
  9 28  1  0  0  0  0
 11 29  1  0  0  0  0
M  END
$$$$
