C18H29NO2
APtclcactv12211717183D 0   0.00000     0.00000
 
 50 51  0  0  1  0  0  0  0  0999 V2000
   -1.7715    0.3808    0.0575 C   0  0  1  0  0  0  0  0  0  0  0  0
    3.9939   -1.4293   -0.0446 C   0  0  0  0  0  0  0  0  0  0  0  0
    1.4043   -2.4003    0.0743 C   0  0  0  0  0  0  0  0  0  0  0  0
    3.7659   -2.7914    0.0178 C   0  0  0  0  0  0  0  0  0  0  0  0
    2.4722   -3.2763    0.0772 C   0  0  0  0  0  0  0  0  0  0  0  0
   -0.7279   -0.7380    0.0716 C   0  0  0  0  0  0  0  0  0  0  0  0
   -3.1731   -0.2300   -0.0005 C   0  0  0  0  0  0  0  0  0  0  0  0
   -5.8198   -0.4902    1.0893 C   0  0  0  0  0  0  0  0  0  0  0  0
   -5.6499   -0.6438   -1.3987 C   0  0  0  0  0  0  0  0  0  0  0  0
   -6.5367    1.4347   -0.3330 C   0  0  0  0  0  0  0  0  0  0  0  0
   -1.7710    0.6677    2.0622 H   0  0  0  0  0  0  0  0  0  0  0  0
   -3.9758    1.4158   -0.9416 H   0  0  0  0  0  0  0  0  0  0  0  0
    2.9291   -0.5489   -0.0478 C   0  0  0  0  0  0  0  0  0  0  0  0
    1.6305   -1.0328    0.0117 C   0  0  0  0  0  0  0  0  0  0  0  0
    4.0213    1.4005    1.0971 C   0  0  0  0  0  0  0  0  0  0  0  0
    4.0532    1.2805   -1.3392 C   0  0  0  0  0  0  0  0  0  0  0  0
    4.6728    2.7072    0.5802 C   0  0  0  0  0  0  0  0  0  0  0  0
    5.0035    2.4068   -0.8963 C   0  0  0  0  0  0  0  0  0  0  0  0
   -1.6432    1.1668    1.2440 O   0  0  0  0  0  0  0  0  0  0  0  0
    0.5814   -0.1689    0.0083 O   0  0  0  0  0  0  0  0  0  0  0  0
    3.1783    0.9357   -0.1163 C   0  0  0  0  0  0  0  0  0  0  0  0
   -5.5297    0.2913   -0.1937 C   0  0  0  0  0  0  0  0  0  0  0  0
   -4.1690    0.8416   -0.1347 N   0  0  0  0  0  0  0  0  0  0  0  0
    2.2340    1.4787   -0.1551 H   0  0  0  0  0  0  0  0  0  0  0  0
    5.0053   -1.0529   -0.0864 H   0  0  0  0  0  0  0  0  0  0  0  0
    0.3941   -2.7795    0.1203 H   0  0  0  0  0  0  0  0  0  0  0  0
    4.7828    0.6608    1.3444 H   0  0  0  0  0  0  0  0  0  0  0  0
    3.3825    1.6013    1.9571 H   0  0  0  0  0  0  0  0  0  0  0  0
    3.4262    1.6230   -2.1623 H   0  0  0  0  0  0  0  0  0  0  0  0
    4.6276    0.4062   -1.6457 H   0  0  0  0  0  0  0  0  0  0  0  0
    4.5996   -3.4780    0.0199 H   0  0  0  0  0  0  0  0  0  0  0  0
    2.2968   -4.3408    0.1263 H   0  0  0  0  0  0  0  0  0  0  0  0
   -0.8283   -1.3170    0.9896 H   0  0  0  0  0  0  0  0  0  0  0  0
   -0.8826   -1.3900   -0.7881 H   0  0  0  0  0  0  0  0  0  0  0  0
   -1.6143    1.0133   -0.8162 H   0  0  0  0  0  0  0  0  0  0  0  0
    3.9709    3.5380    0.6525 H   0  0  0  0  0  0  0  0  0  0  0  0
    5.5833    2.9262    1.1381 H   0  0  0  0  0  0  0  0  0  0  0  0
    6.0390    2.0792   -0.9879 H   0  0  0  0  0  0  0  0  0  0  0  0
    4.8376    3.2960   -1.5045 H   0  0  0  0  0  0  0  0  0  0  0  0
   -3.2424   -0.8997   -0.8577 H   0  0  0  0  0  0  0  0  0  0  0  0
   -3.3634   -0.7903    0.9148 H   0  0  0  0  0  0  0  0  0  0  0  0
   -5.7342    0.1759    1.9477 H   0  0  0  0  0  0  0  0  0  0  0  0
   -6.8295   -0.8986    1.0455 H   0  0  0  0  0  0  0  0  0  0  0  0
   -5.1024   -1.3049    1.1885 H   0  0  0  0  0  0  0  0  0  0  0  0
   -4.9325   -1.4584   -1.2994 H   0  0  0  0  0  0  0  0  0  0  0  0
   -6.6596   -1.0521   -1.4425 H   0  0  0  0  0  0  0  0  0  0  0  0
   -5.4432   -0.0870   -2.3127 H   0  0  0  0  0  0  0  0  0  0  0  0
   -6.3300    1.9915   -1.2470 H   0  0  0  0  0  0  0  0  0  0  0  0
   -7.5464    1.0264   -0.3768 H   0  0  0  0  0  0  0  0  0  0  0  0
   -6.4511    2.1009    0.5254 H   0  0  0  0  0  0  0  0  0  0  0  0
 14 20  1  0  0  0  0
  6 20  1  0  0  0  0
  1 19  1  0  0  0  0
 22 23  1  0  0  0  0
  7 23  1  0  0  0  0
 13 14  2  0  0  0  0
 13 21  1  0  0  0  0
  2 13  1  0  0  0  0
  3 14  1  0  0  0  0
 15 21  1  0  0  0  0
 16 21  1  0  0  0  0
  2  4  2  0  0  0  0
  3  5  2  0  0  0  0
 15 17  1  0  0  0  0
 16 18  1  0  0  0  0
  4  5  1  0  0  0  0
  1  6  1  0  0  0  0
  1  7  1  0  0  0  0
 17 18  1  0  0  0  0
  8 22  1  0  0  0  0
  9 22  1  0  0  0  0
 10 22  1  0  0  0  0
 11 19  1  0  0  0  0
 12 23  1  0  0  0  0
 21 24  1  0  0  0  0
  2 25  1  0  0  0  0
  3 26  1  0  0  0  0
 15 27  1  0  0  0  0
 15 28  1  0  0  0  0
 16 29  1  0  0  0  0
 16 30  1  0  0  0  0
  4 31  1  0  0  0  0
  5 32  1  0  0  0  0
  6 33  1  0  0  0  0
  6 34  1  0  0  0  0
  1 35  1  0  0  0  0
 17 36  1  0  0  0  0
 17 37  1  0  0  0  0
 18 38  1  0  0  0  0
 18 39  1  0  0  0  0
  7 40  1  0  0  0  0
  7 41  1  0  0  0  0
  8 42  1  0  0  0  0
  8 43  1  0  0  0  0
  8 44  1  0  0  0  0
  9 45  1  0  0  0  0
  9 46  1  0  0  0  0
  9 47  1  0  0  0  0
 10 48  1  0  0  0  0
 10 49  1  0  0  0  0
 10 50  1  0  0  0  0
M  END
$$$$
