C16H18N2O4S
APtclcactv12211717123D 0   0.00000     0.00000
 
 41 43  0  0  1  0  0  0  0  0999 V2000
   -1.5181    0.4219    1.5013 C   0  0  1  0  0  0  0  0  0  0  0  0
   -2.9386   -0.2925   -0.3948 C   0  0  1  0  0  0  0  0  0  0  0  0
   -0.2039   -0.3112    1.2587 C   0  0  1  0  0  0  0  0  0  0  0  0
    4.7934   -0.8319   -1.1615 C   0  0  0  0  0  0  0  0  0  0  0  0
    5.0699    1.1393    0.1693 C   0  0  0  0  0  0  0  0  0  0  0  0
    6.1153   -1.1684   -0.9377 C   0  0  0  0  0  0  0  0  0  0  0  0
    6.3919    0.8027    0.3930 C   0  0  0  0  0  0  0  0  0  0  0  0
    6.9145   -0.3512   -0.1603 C   0  0  0  0  0  0  0  0  0  0  0  0
    2.8295    0.6887   -0.8517 C   0  0  0  0  0  0  0  0  0  0  0  0
   -3.4462    1.7675   -1.8010 C   0  0  0  0  0  0  0  0  0  0  0  0
   -4.5355    1.4959    0.4598 C   0  0  0  0  0  0  0  0  0  0  0  0
    0.2293    0.8101   -0.4915 H   0  0  0  0  0  0  0  0  0  0  0  0
    4.2706    0.3219   -0.6078 C   0  0  0  0  0  0  0  0  0  0  0  0
   -0.9303   -2.5381    0.4318 O   0  0  0  0  0  0  0  0  0  0  0  0
   -4.6945   -1.6336    0.4240 O   0  0  0  0  0  0  0  0  0  0  0  0
    2.4735   -0.5826    1.1045 O   0  0  0  0  0  0  0  0  0  0  0  0
   -4.7888   -1.2157   -1.7440 O   0  0  0  0  0  0  0  0  0  0  0  0
   -4.2049   -1.0964   -0.5412 C   0  0  0  0  0  0  0  0  0  0  0  0
    1.9674    0.0822    0.2253 C   0  0  0  0  0  0  0  0  0  0  0  0
   -1.1330   -1.3931    0.7765 C   0  0  0  0  0  0  0  0  0  0  0  0
   -5.5993   -1.7413   -1.7883 H   0  0  0  0  0  0  0  0  0  0  0  0
    0.6341    0.2784    0.2116 N   0  0  0  0  0  0  0  0  0  0  0  0
   -3.2874    1.2202   -0.3811 C   0  0  0  0  0  0  0  0  0  0  0  0
   -1.7719    1.8862    0.4282 S   0  0  0  0  0  0  0  0  0  0  0  0
   -2.2690   -0.6630    0.8552 N   0  0  0  0  0  0  0  0  0  0  0  0
   -1.7596    0.5879    2.5512 H   0  0  0  0  0  0  0  0  0  0  0  0
   -2.2779   -0.5039   -1.2355 H   0  0  0  0  0  0  0  0  0  0  0  0
    0.3470   -0.5606    2.1656 H   0  0  0  0  0  0  0  0  0  0  0  0
   -4.2478    1.2317   -2.3094 H   0  0  0  0  0  0  0  0  0  0  0  0
   -3.6901    2.8289   -1.7561 H   0  0  0  0  0  0  0  0  0  0  0  0
   -2.5139    1.6318   -2.3491 H   0  0  0  0  0  0  0  0  0  0  0  0
   -4.3615    1.1712    1.4856 H   0  0  0  0  0  0  0  0  0  0  0  0
   -4.7524    2.5641    0.4487 H   0  0  0  0  0  0  0  0  0  0  0  0
   -5.3818    0.9490    0.0441 H   0  0  0  0  0  0  0  0  0  0  0  0
    2.7228    1.7734   -0.8347 H   0  0  0  0  0  0  0  0  0  0  0  0
    2.5172    0.3082   -1.8243 H   0  0  0  0  0  0  0  0  0  0  0  0
    4.1702   -1.4680   -1.7725 H   0  0  0  0  0  0  0  0  0  0  0  0
    4.6615    2.0406    0.6018 H   0  0  0  0  0  0  0  0  0  0  0  0
    6.5236   -2.0700   -1.3700 H   0  0  0  0  0  0  0  0  0  0  0  0
    7.0165    1.4415    0.9998 H   0  0  0  0  0  0  0  0  0  0  0  0
    7.9471   -0.6146    0.0152 H   0  0  0  0  0  0  0  0  0  0  0  0
  1 25  1  0  0  0  0
  2 25  1  0  0  0  0
 20 25  1  0  0  0  0
  1  3  1  0  0  0  0
  1 24  1  0  0  0  0
  2 23  1  0  0  0  0
  2 18  1  0  0  0  0
 14 20  2  0  0  0  0
  3 22  1  0  0  0  0
 10 23  1  0  0  0  0
 11 23  1  0  0  0  0
 17 18  1  0  0  0  0
 15 18  2  0  0  0  0
 19 22  1  0  0  0  0
  9 19  1  0  0  0  0
 16 19  2  0  0  0  0
  9 13  1  0  0  0  0
  4 13  2  0  0  0  0
  5 13  1  0  0  0  0
  4  6  1  0  0  0  0
  5  7  2  0  0  0  0
  6  8  2  0  0  0  0
  3 20  1  0  0  0  0
 23 24  1  0  0  0  0
  7  8  1  0  0  0  0
  1 26  1  0  0  0  0
  2 27  1  0  0  0  0
  3 28  1  0  0  0  0
 12 22  1  0  0  0  0
 10 29  1  0  0  0  0
 10 30  1  0  0  0  0
 10 31  1  0  0  0  0
 11 32  1  0  0  0  0
 11 33  1  0  0  0  0
 11 34  1  0  0  0  0
 17 21  1  0  0  0  0
  9 35  1  0  0  0  0
  9 36  1  0  0  0  0
  4 37  1  0  0  0  0
  5 38  1  0  0  0  0
  6 39  1  0  0  0  0
  7 40  1  0  0  0  0
  8 41  1  0  0  0  0
M  END
$$$$
