C13H18ClNO
APtclcactv12071713283D 0   0.00000     0.00000
 
 34 34  0  0  0  0  0  0  0  0999 V2000
    1.2923   -0.2736   -0.3007 C   0  0  0  0  0  0  0  0  0  0  0  0
    1.6573    2.0818    0.0098 C   0  0  0  0  0  0  0  0  0  0  0  0
    3.0018    1.8437    0.2169 C   0  0  0  0  0  0  0  0  0  0  0  0
   -3.7506   -0.6095    0.1778 C   0  0  0  0  0  0  0  0  0  0  0  0
   -5.2091   -0.4726   -0.2637 C   0  0  0  0  0  0  0  0  0  0  0  0
   -3.4223    1.8668    0.2263 C   0  0  0  0  0  0  0  0  0  0  0  0
    4.9606    0.2960    0.3927 C   0  0  0  0  0  0  0  0  0  0  0  0
   -6.0250   -1.6359    0.3035 C   0  0  0  0  0  0  0  0  0  0  0  0
   -0.8531    2.0790   -0.8945 H   0  0  0  0  0  0  0  0  0  0  0  0
    0.7973    1.0224   -0.2497 C   0  0  0  0  0  0  0  0  0  0  0  0
    2.6393   -0.5059   -0.0930 C   0  0  0  0  0  0  0  0  0  0  0  0
    3.4929    0.5521    0.1657 C   0  0  0  0  0  0  0  0  0  0  0  0
   -1.1271   -0.6223    0.5696 O   0  0  0  0  0  0  0  0  0  0  0  0
   -1.4780    0.3543   -0.0583 C   0  0  0  0  0  0  0  0  0  0  0  0
   -2.9346    0.5538   -0.3894 C   0  0  0  0  0  0  0  0  0  0  0  0
    3.2600   -2.1259   -0.1564 Cl  0  0  0  0  0  0  0  0  0  0  0  0
   -0.5653    1.2610   -0.4599 N   0  0  0  0  0  0  0  0  0  0  0  0
    0.6253   -1.0998   -0.4978 H   0  0  0  0  0  0  0  0  0  0  0  0
    1.2749    3.0910    0.0496 H   0  0  0  0  0  0  0  0  0  0  0  0
    3.6706    2.6674    0.4183 H   0  0  0  0  0  0  0  0  0  0  0  0
   -3.0594    0.5915   -1.4716 H   0  0  0  0  0  0  0  0  0  0  0  0
   -3.6975   -0.5938    1.2664 H   0  0  0  0  0  0  0  0  0  0  0  0
   -3.3459   -1.5516   -0.1921 H   0  0  0  0  0  0  0  0  0  0  0  0
   -3.2976    1.8291    1.3085 H   0  0  0  0  0  0  0  0  0  0  0  0
   -2.8410    2.6956   -0.1778 H   0  0  0  0  0  0  0  0  0  0  0  0
   -4.4759    2.0112   -0.0132 H   0  0  0  0  0  0  0  0  0  0  0  0
    5.4886    0.3400   -0.5599 H   0  0  0  0  0  0  0  0  0  0  0  0
    5.3617    1.0536    1.0659 H   0  0  0  0  0  0  0  0  0  0  0  0
    5.0929   -0.6909    0.8362 H   0  0  0  0  0  0  0  0  0  0  0  0
   -5.6138    0.4695    0.1062 H   0  0  0  0  0  0  0  0  0  0  0  0
   -5.2621   -0.4883   -1.3523 H   0  0  0  0  0  0  0  0  0  0  0  0
   -5.6203   -2.5780   -0.0665 H   0  0  0  0  0  0  0  0  0  0  0  0
   -5.9720   -1.6202    1.3921 H   0  0  0  0  0  0  0  0  0  0  0  0
   -7.0641   -1.5384   -0.0111 H   0  0  0  0  0  0  0  0  0  0  0  0
 10 17  1  0  0  0  0
  1 10  2  0  0  0  0
  2 10  1  0  0  0  0
 14 17  1  0  0  0  0
  1 11  1  0  0  0  0
  2  3  2  0  0  0  0
 14 15  1  0  0  0  0
 13 14  2  0  0  0  0
 11 12  2  0  0  0  0
 11 16  1  0  0  0  0
  4 15  1  0  0  0  0
  6 15  1  0  0  0  0
  7 12  1  0  0  0  0
  4  5  1  0  0  0  0
  5  8  1  0  0  0  0
  3 12  1  0  0  0  0
  9 17  1  0  0  0  0
  1 18  1  0  0  0  0
  2 19  1  0  0  0  0
  3 20  1  0  0  0  0
 15 21  1  0  0  0  0
  4 22  1  0  0  0  0
  4 23  1  0  0  0  0
  6 24  1  0  0  0  0
  6 25  1  0  0  0  0
  6 26  1  0  0  0  0
  7 27  1  0  0  0  0
  7 28  1  0  0  0  0
  7 29  1  0  0  0  0
  5 30  1  0  0  0  0
  5 31  1  0  0  0  0
  8 32  1  0  0  0  0
  8 33  1  0  0  0  0
  8 34  1  0  0  0  0
M  END
$$$$
