C2HCl5
APtclcactv12101715333D 0   0.00000     0.00000
 
  8  7  0  0  0  0  0  0  0  0999 V2000
   -1.6814    1.4721   -0.2061 Cl  0  0  0  0  0  0  0  0  0  0  0  0
   -0.7670   -0.0000   -0.7035 C   0  0  0  0  0  0  0  0  0  0  0  0
    0.6059    0.0000   -0.0283 C   0  0  0  0  0  0  0  0  0  0  0  0
    0.3950    0.0000    1.7623 Cl  0  0  0  0  0  0  0  0  0  0  0  0
    1.5203   -1.4721   -0.5257 Cl  0  0  0  0  0  0  0  0  0  0  0  0
    1.5203    1.4721   -0.5257 Cl  0  0  0  0  0  0  0  0  0  0  0  0
   -1.6814   -1.4721   -0.2061 Cl  0  0  0  0  0  0  0  0  0  0  0  0
   -0.6395    0.0000   -1.7860 H   0  0  0  0  0  0  0  0  0  0  0  0
  1  2  1  0  0  0  0
  2  3  1  0  0  0  0
  3  4  1  0  0  0  0
  3  5  1  0  0  0  0
  3  6  1  0  0  0  0
  2  7  1  0  0  0  0
  2  8  1  0  0  0  0
M  END
$$$$
