C11H18N2O3
APtclcactv12111704483D 0   0.00000     0.00000
 
 34 34  0  0  0  0  0  0  0  0999 V2000
   -0.2806    1.3415   -1.3613 C   0  0  0  0  0  0  0  0  0  0  0  0
   -2.3690   -0.0678   -0.1253 C   0  0  0  0  0  0  0  0  0  0  0  0
   -3.6312   -0.0519    0.7394 C   0  0  0  0  0  0  0  0  0  0  0  0
   -0.9228   -0.7011    1.8111 C   0  0  0  0  0  0  0  0  0  0  0  0
    0.9086    1.4057   -2.3217 C   0  0  0  0  0  0  0  0  0  0  0  0
   -4.8355   -0.4662   -0.1085 C   0  0  0  0  0  0  0  0  0  0  0  0
    1.8478   -2.3229   -0.7410 H   0  0  0  0  0  0  0  0  0  0  0  0
    3.0440    0.8912    1.3007 H   0  0  0  0  0  0  0  0  0  0  0  0
   -0.4133   -1.5687   -1.3343 O   0  0  0  0  0  0  0  0  0  0  0  0
    1.0087    2.2494    1.0858 O   0  0  0  0  0  0  0  0  0  0  0  0
    3.5966   -1.2830    0.4984 O   0  0  0  0  0  0  0  0  0  0  0  0
    0.3973   -0.9347   -0.6935 C   0  0  0  0  0  0  0  0  0  0  0  0
    1.1693    1.1398    0.6246 C   0  0  0  0  0  0  0  0  0  0  0  0
    2.5222   -0.7538    0.2949 C   0  0  0  0  0  0  0  0  0  0  0  0
   -1.1647    0.3465    0.7226 C   0  0  0  0  0  0  0  0  0  0  0  0
    0.0745    0.4515   -0.1685 C   0  0  0  0  0  0  0  0  0  0  0  0
    1.6186   -1.4382   -0.4158 N   0  0  0  0  0  0  0  0  0  0  0  0
    2.3291    0.4711    0.7973 N   0  0  0  0  0  0  0  0  0  0  0  0
   -1.3619    1.3131    1.1861 H   0  0  0  0  0  0  0  0  0  0  0  0
   -0.5170    2.3453   -1.0080 H   0  0  0  0  0  0  0  0  0  0  0  0
   -1.1446    0.9261   -1.8801 H   0  0  0  0  0  0  0  0  0  0  0  0
   -2.2094   -1.0724   -0.5168 H   0  0  0  0  0  0  0  0  0  0  0  0
   -2.4875    0.6305   -0.9538 H   0  0  0  0  0  0  0  0  0  0  0  0
   -0.8327   -1.6863    1.3536 H   0  0  0  0  0  0  0  0  0  0  0  0
   -0.0033   -0.4636    2.3461 H   0  0  0  0  0  0  0  0  0  0  0  0
   -1.7600   -0.6998    2.5091 H   0  0  0  0  0  0  0  0  0  0  0  0
    0.6556    2.0398   -3.1715 H   0  0  0  0  0  0  0  0  0  0  0  0
    1.7726    1.8211   -1.8030 H   0  0  0  0  0  0  0  0  0  0  0  0
    1.1449    0.4020   -2.6750 H   0  0  0  0  0  0  0  0  0  0  0  0
   -3.5127   -0.7502    1.5680 H   0  0  0  0  0  0  0  0  0  0  0  0
   -3.7908    0.9527    1.1309 H   0  0  0  0  0  0  0  0  0  0  0  0
   -5.7346   -0.4549    0.5075 H   0  0  0  0  0  0  0  0  0  0  0  0
   -4.9539    0.2320   -0.9371 H   0  0  0  0  0  0  0  0  0  0  0  0
   -4.6758   -1.4709   -0.5000 H   0  0  0  0  0  0  0  0  0  0  0  0
 12 16  1  0  0  0  0
 13 16  1  0  0  0  0
 15 16  1  0  0  0  0
  1 16  1  0  0  0  0
 12 17  1  0  0  0  0
  9 12  2  0  0  0  0
 13 18  1  0  0  0  0
 10 13  2  0  0  0  0
  2 15  1  0  0  0  0
  4 15  1  0  0  0  0
  1  5  1  0  0  0  0
 14 17  1  0  0  0  0
  2  3  1  0  0  0  0
 11 14  2  0  0  0  0
  3  6  1  0  0  0  0
 14 18  1  0  0  0  0
 15 19  1  0  0  0  0
  1 20  1  0  0  0  0
  1 21  1  0  0  0  0
  7 17  1  0  0  0  0
  8 18  1  0  0  0  0
  2 22  1  0  0  0  0
  2 23  1  0  0  0  0
  4 24  1  0  0  0  0
  4 25  1  0  0  0  0
  4 26  1  0  0  0  0
  5 27  1  0  0  0  0
  5 28  1  0  0  0  0
  5 29  1  0  0  0  0
  3 30  1  0  0  0  0
  3 31  1  0  0  0  0
  6 32  1  0  0  0  0
  6 33  1  0  0  0  0
  6 34  1  0  0  0  0
M  END
$$$$
