C8H16N6
APtclcactv12151716353D 0   0.00000     0.00000
 
 30 30  0  0  0  0  0  0  0  0999 V2000
   -3.2062    1.5158    0.0055 C   0  0  0  0  0  0  0  0  0  0  0  0
   -3.5974   -0.9913   -0.0007 C   0  0  0  0  0  0  0  0  0  0  0  0
    1.1712    3.2076   -0.0016 C   0  0  0  0  0  0  0  0  0  0  0  0
    3.1468    1.6152    0.0019 C   0  0  0  0  0  0  0  0  0  0  0  0
    2.4232   -3.0216    0.0024 C   0  0  0  0  0  0  0  0  0  0  0  0
    0.3670   -3.5510   -0.0003 H   0  0  0  0  0  0  0  0  0  0  0  0
   -1.3145   -0.0635   -0.0034 C   0  0  0  0  0  0  0  0  0  0  0  0
    0.8332    0.7666   -0.0007 C   0  0  0  0  0  0  0  0  0  0  0  0
    0.4782   -1.5084   -0.0007 C   0  0  0  0  0  0  0  0  0  0  0  0
   -0.4802    0.9715   -0.0025 N   0  0  0  0  0  0  0  0  0  0  0  0
   -0.8352   -1.3035   -0.0025 N   0  0  0  0  0  0  0  0  0  0  0  0
    1.3125   -0.4734    0.0003 N   0  0  0  0  0  0  0  0  0  0  0  0
   -2.6781    0.1493    0.0004 N   0  0  0  0  0  0  0  0  0  0  0  0
    1.6993    1.8411   -0.0001 N   0  0  0  0  0  0  0  0  0  0  0  0
    0.9758   -2.7957    0.0003 N   0  0  0  0  0  0  0  0  0  0  0  0
   -3.3396    1.8576   -1.0209 H   0  0  0  0  0  0  0  0  0  0  0  0
   -4.1661    1.5324    0.5216 H   0  0  0  0  0  0  0  0  0  0  0  0
   -2.5058    2.1741    0.5195 H   0  0  0  0  0  0  0  0  0  0  0  0
   -3.0253   -1.9191   -0.0046 H   0  0  0  0  0  0  0  0  0  0  0  0
   -4.2234   -0.9543    0.8909 H   0  0  0  0  0  0  0  0  0  0  0  0
   -4.2276   -0.9493   -0.8890 H   0  0  0  0  0  0  0  0  0  0  0  0
    1.0388    3.5471    1.0257 H   0  0  0  0  0  0  0  0  0  0  0  0
    1.8710    3.8670   -0.5149 H   0  0  0  0  0  0  0  0  0  0  0  0
    0.2107    3.2253   -0.5167 H   0  0  0  0  0  0  0  0  0  0  0  0
    3.3473    0.5438    0.0028 H   0  0  0  0  0  0  0  0  0  0  0  0
    3.5862    2.0664   -0.8878 H   0  0  0  0  0  0  0  0  0  0  0  0
    3.5838    2.0674    0.8922 H   0  0  0  0  0  0  0  0  0  0  0  0
    2.8627   -2.5702   -0.8871 H   0  0  0  0  0  0  0  0  0  0  0  0
    2.8602   -2.5697    0.8928 H   0  0  0  0  0  0  0  0  0  0  0  0
    2.6238   -4.0930    0.0029 H   0  0  0  0  0  0  0  0  0  0  0  0
  7 10  1  0  0  0  0
  7 11  2  0  0  0  0
  7 13  1  0  0  0  0
  8 10  2  0  0  0  0
  9 11  1  0  0  0  0
  1 13  1  0  0  0  0
  2 13  1  0  0  0  0
  8 12  1  0  0  0  0
  8 14  1  0  0  0  0
  9 15  1  0  0  0  0
  3 14  1  0  0  0  0
  4 14  1  0  0  0  0
  5 15  1  0  0  0  0
  9 12  2  0  0  0  0
  1 16  1  0  0  0  0
  1 17  1  0  0  0  0
  1 18  1  0  0  0  0
  2 19  1  0  0  0  0
  2 20  1  0  0  0  0
  2 21  1  0  0  0  0
  6 15  1  0  0  0  0
  3 22  1  0  0  0  0
  3 23  1  0  0  0  0
  3 24  1  0  0  0  0
  4 25  1  0  0  0  0
  4 26  1  0  0  0  0
  4 27  1  0  0  0  0
  5 28  1  0  0  0  0
  5 29  1  0  0  0  0
  5 30  1  0  0  0  0
M  END
$$$$
