C12H17NO2
APtclcactv12111705013D 0   0.00000     0.00000
 
 32 32  0  0  0  0  0  0  0  0999 V2000
    5.6178   -1.0999    0.0014 N   0  0  0  0  0  0  0  0  0  0  0  0
    4.3167   -0.6105    0.0009 C   0  0  0  0  0  0  0  0  0  0  0  0
    4.0915    0.7635    0.0000 C   0  0  0  0  0  0  0  0  0  0  0  0
    2.8094    1.2496    0.0000 C   0  0  0  0  0  0  0  0  0  0  0  0
    1.7273    0.3635    0.0005 C   0  0  0  0  0  0  0  0  0  0  0  0
    0.3479    0.8824   -0.0000 C   0  0  0  0  0  0  0  0  0  0  0  0
    0.1497    2.0813   -0.0008 O   0  0  0  0  0  0  0  0  0  0  0  0
   -0.6937    0.0273    0.0004 O   0  0  0  0  0  0  0  0  0  0  0  0
   -2.0241    0.6089   -0.0001 C   0  0  0  0  0  0  0  0  0  0  0  0
   -3.0692   -0.5085    0.0004 C   0  0  0  0  0  0  0  0  0  0  0  0
   -4.4711    0.1044   -0.0001 C   0  0  0  0  0  0  0  0  0  0  0  0
   -5.5162   -1.0130    0.0005 C   0  0  0  0  0  0  0  0  0  0  0  0
   -6.9181   -0.4001   -0.0001 C   0  0  0  0  0  0  0  0  0  0  0  0
    1.9572   -1.0160    0.0009 C   0  0  0  0  0  0  0  0  0  0  0  0
    3.2417   -1.4954   -0.0044 C   0  0  0  0  0  0  0  0  0  0  0  0
    6.3675   -0.4844    0.0011 H   0  0  0  0  0  0  0  0  0  0  0  0
    5.7760   -2.0569    0.0060 H   0  0  0  0  0  0  0  0  0  0  0  0
    4.9275    1.4472   -0.0003 H   0  0  0  0  0  0  0  0  0  0  0  0
    2.6354    2.3155    0.0001 H   0  0  0  0  0  0  0  0  0  0  0  0
   -2.1513    1.2259    0.8895 H   0  0  0  0  0  0  0  0  0  0  0  0
   -2.1510    1.2247   -0.8905 H   0  0  0  0  0  0  0  0  0  0  0  0
   -2.9420   -1.1254   -0.8891 H   0  0  0  0  0  0  0  0  0  0  0  0
   -2.9422   -1.1243    0.8908 H   0  0  0  0  0  0  0  0  0  0  0  0
   -4.5983    0.7213    0.8895 H   0  0  0  0  0  0  0  0  0  0  0  0
   -4.5981    0.7202   -0.8905 H   0  0  0  0  0  0  0  0  0  0  0  0
   -5.3890   -1.6299   -0.8891 H   0  0  0  0  0  0  0  0  0  0  0  0
   -5.3892   -1.6288    0.8909 H   0  0  0  0  0  0  0  0  0  0  0  0
   -7.0453    0.2168    0.8895 H   0  0  0  0  0  0  0  0  0  0  0  0
   -7.0451    0.2157   -0.8905 H   0  0  0  0  0  0  0  0  0  0  0  0
   -7.6627   -1.1962    0.0003 H   0  0  0  0  0  0  0  0  0  0  0  0
    1.1238   -1.7029    0.0015 H   0  0  0  0  0  0  0  0  0  0  0  0
    3.4199   -2.5606   -0.0044 H   0  0  0  0  0  0  0  0  0  0  0  0
  1  2  1  0  0  0  0
  2  3  2  0  0  0  0
  3  4  1  0  0  0  0
  4  5  2  0  0  0  0
  5  6  1  0  0  0  0
  6  7  2  0  0  0  0
  6  8  1  0  0  0  0
  8  9  1  0  0  0  0
  9 10  1  0  0  0  0
 10 11  1  0  0  0  0
 11 12  1  0  0  0  0
 12 13  1  0  0  0  0
  5 14  1  0  0  0  0
 14 15  2  0  0  0  0
  2 15  1  0  0  0  0
  1 16  1  0  0  0  0
  1 17  1  0  0  0  0
  3 18  1  0  0  0  0
  4 19  1  0  0  0  0
  9 20  1  0  0  0  0
  9 21  1  0  0  0  0
 10 22  1  0  0  0  0
 10 23  1  0  0  0  0
 11 24  1  0  0  0  0
 11 25  1  0  0  0  0
 12 26  1  0  0  0  0
 12 27  1  0  0  0  0
 13 28  1  0  0  0  0
 13 29  1  0  0  0  0
 13 30  1  0  0  0  0
 14 31  1  0  0  0  0
 15 32  1  0  0  0  0
M  END
$$$$
