C5H12O4
APtclcactv12211716463D 0   0.00000     0.00000
 
 21 20  0  0  0  0  0  0  0  0999 V2000
    1.0794    2.1615   -0.0583 O   0  0  0  0  0  0  0  0  0  0  0  0
    0.5581    1.1176   -0.8833 C   0  0  0  0  0  0  0  0  0  0  0  0
    0.0000    0.0000    0.0000 C   0  0  0  0  0  0  0  0  0  0  0  0
   -0.5581   -1.1176   -0.8833 C   0  0  0  0  0  0  0  0  0  0  0  0
   -1.0794   -2.1615   -0.0583 O   0  0  0  0  0  0  0  0  0  0  0  0
    1.1176   -0.5581    0.8833 C   0  0  0  0  0  0  0  0  0  0  0  0
    2.1615   -1.0794    0.0583 O   0  0  0  0  0  0  0  0  0  0  0  0
   -1.1176    0.5581    0.8833 C   0  0  0  0  0  0  0  0  0  0  0  0
   -2.1615    1.0794    0.0583 O   0  0  0  0  0  0  0  0  0  0  0  0
    1.4507    2.9051   -0.5525 H   0  0  0  0  0  0  0  0  0  0  0  0
   -0.2381    1.5152   -1.5127 H   0  0  0  0  0  0  0  0  0  0  0  0
    1.3543    0.7200   -1.5127 H   0  0  0  0  0  0  0  0  0  0  0  0
   -1.3543   -0.7200   -1.5127 H   0  0  0  0  0  0  0  0  0  0  0  0
    0.2381   -1.5152   -1.5127 H   0  0  0  0  0  0  0  0  0  0  0  0
   -1.4507   -2.9051   -0.5525 H   0  0  0  0  0  0  0  0  0  0  0  0
    1.5152    0.2381    1.5127 H   0  0  0  0  0  0  0  0  0  0  0  0
    0.7200   -1.3543    1.5127 H   0  0  0  0  0  0  0  0  0  0  0  0
    2.9051   -1.4507    0.5525 H   0  0  0  0  0  0  0  0  0  0  0  0
   -1.5152   -0.2381    1.5127 H   0  0  0  0  0  0  0  0  0  0  0  0
   -0.7200    1.3543    1.5127 H   0  0  0  0  0  0  0  0  0  0  0  0
   -2.9051    1.4507    0.5525 H   0  0  0  0  0  0  0  0  0  0  0  0
  1  2  1  0  0  0  0
  2  3  1  0  0  0  0
  3  4  1  0  0  0  0
  4  5  1  0  0  0  0
  3  6  1  0  0  0  0
  6  7  1  0  0  0  0
  3  8  1  0  0  0  0
  8  9  1  0  0  0  0
  1 10  1  0  0  0  0
  2 11  1  0  0  0  0
  2 12  1  0  0  0  0
  4 13  1  0  0  0  0
  4 14  1  0  0  0  0
  5 15  1  0  0  0  0
  6 16  1  0  0  0  0
  6 17  1  0  0  0  0
  7 18  1  0  0  0  0
  8 19  1  0  0  0  0
  8 20  1  0  0  0  0
  9 21  1  0  0  0  0
M  END
$$$$
