C16H16N2O4
APtclcactv12211717113D 0   0.00000     0.00000
 
 38 39  0  0  0  0  0  0  0  0999 V2000
    1.9288    0.5508   -0.2095 C   0  0  0  0  0  0  0  0  0  0  0  0
    1.6104    2.9249   -0.3843 C   0  0  0  0  0  0  0  0  0  0  0  0
    3.5786    2.0609    0.6710 C   0  0  0  0  0  0  0  0  0  0  0  0
    2.8143    3.1360    0.2599 C   0  0  0  0  0  0  0  0  0  0  0  0
   -4.2609   -0.5886   -0.8695 C   0  0  0  0  0  0  0  0  0  0  0  0
   -3.3515    0.5238    1.0573 C   0  0  0  0  0  0  0  0  0  0  0  0
   -5.3619   -0.7626    1.2497 C   0  0  0  0  0  0  0  0  0  0  0  0
   -4.3902    0.0357    1.8253 C   0  0  0  0  0  0  0  0  0  0  0  0
   -6.3588   -1.9432   -0.7192 C   0  0  0  0  0  0  0  0  0  0  0  0
    4.5782   -3.7193   -0.2710 C   0  0  0  0  0  0  0  0  0  0  0  0
   -2.3872    0.9446   -2.0027 H   0  0  0  0  0  0  0  0  0  0  0  0
    4.4292   -0.2666    1.6727 H   0  0  0  0  0  0  0  0  0  0  0  0
    1.1650    1.6317   -0.6204 C   0  0  0  0  0  0  0  0  0  0  0  0
    3.1379    0.7647    0.4374 C   0  0  0  0  0  0  0  0  0  0  0  0
   -3.2836    0.2127   -0.2946 C   0  0  0  0  0  0  0  0  0  0  0  0
   -5.2973   -1.0738   -0.0959 C   0  0  0  0  0  0  0  0  0  0  0  0
   -0.7842    0.4549    0.5894 O   0  0  0  0  0  0  0  0  0  0  0  0
    3.3725   -1.4912   -0.9563 O   0  0  0  0  0  0  0  0  0  0  0  0
   -1.0037    0.8478   -0.5394 C   0  0  0  0  0  0  0  0  0  0  0  0
    3.9382   -1.4531    0.1185 C   0  0  0  0  0  0  0  0  0  0  0  0
   -0.0195    1.4255   -1.2547 O   0  0  0  0  0  0  0  0  0  0  0  0
    4.5915   -2.5387    0.5743 O   0  0  0  0  0  0  0  0  0  0  0  0
   -2.2320    0.7055   -1.0755 N   0  0  0  0  0  0  0  0  0  0  0  0
    3.9118   -0.3243    0.8543 N   0  0  0  0  0  0  0  0  0  0  0  0
    1.5817   -0.4561   -0.3884 H   0  0  0  0  0  0  0  0  0  0  0  0
    1.0149    3.7672   -0.7042 H   0  0  0  0  0  0  0  0  0  0  0  0
    4.5193    2.2286    1.1744 H   0  0  0  0  0  0  0  0  0  0  0  0
    3.1588    4.1432    0.4421 H   0  0  0  0  0  0  0  0  0  0  0  0
   -4.2133   -0.8286   -1.9214 H   0  0  0  0  0  0  0  0  0  0  0  0
   -2.5930    1.1472    1.5073 H   0  0  0  0  0  0  0  0  0  0  0  0
   -6.1730   -1.1435    1.8525 H   0  0  0  0  0  0  0  0  0  0  0  0
   -4.4436    0.2772    2.8765 H   0  0  0  0  0  0  0  0  0  0  0  0
   -6.0591   -2.9889   -0.6494 H   0  0  0  0  0  0  0  0  0  0  0  0
   -7.3019   -1.7996   -0.1919 H   0  0  0  0  0  0  0  0  0  0  0  0
   -6.4831   -1.6700   -1.7670 H   0  0  0  0  0  0  0  0  0  0  0  0
    5.1392   -4.5188    0.2128 H   0  0  0  0  0  0  0  0  0  0  0  0
    3.5489   -4.0416   -0.4288 H   0  0  0  0  0  0  0  0  0  0  0  0
    5.0364   -3.4836   -1.2315 H   0  0  0  0  0  0  0  0  0  0  0  0
 13 21  1  0  0  0  0
 19 21  1  0  0  0  0
 17 19  2  0  0  0  0
 20 22  1  0  0  0  0
 10 22  1  0  0  0  0
 18 20  2  0  0  0  0
 19 23  1  0  0  0  0
 15 23  1  0  0  0  0
 14 24  1  0  0  0  0
 20 24  1  0  0  0  0
  1 13  2  0  0  0  0
  2 13  1  0  0  0  0
  1 14  1  0  0  0  0
  3 14  2  0  0  0  0
  5 15  2  0  0  0  0
  6 15  1  0  0  0  0
  2  4  2  0  0  0  0
  3  4  1  0  0  0  0
  5 16  1  0  0  0  0
  7 16  2  0  0  0  0
  9 16  1  0  0  0  0
  6  8  2  0  0  0  0
  7  8  1  0  0  0  0
 11 23  1  0  0  0  0
 12 24  1  0  0  0  0
  1 25  1  0  0  0  0
  2 26  1  0  0  0  0
  3 27  1  0  0  0  0
  4 28  1  0  0  0  0
  5 29  1  0  0  0  0
  6 30  1  0  0  0  0
  7 31  1  0  0  0  0
  8 32  1  0  0  0  0
  9 33  1  0  0  0  0
  9 34  1  0  0  0  0
  9 35  1  0  0  0  0
 10 36  1  0  0  0  0
 10 37  1  0  0  0  0
 10 38  1  0  0  0  0
M  END
$$$$
