C11H10N2O3
APtclcactv12211717323D 0   0.00000     0.00000
 
 26 27  0  0  0  0  0  0  0  0999 V2000
    1.7846   -0.0131   -0.5468 C   0  0  0  0  0  0  0  0  0  0  0  0
    2.3610   -1.1692   -0.0550 C   0  0  0  0  0  0  0  0  0  0  0  0
    3.4322   -1.0913    0.8152 C   0  0  0  0  0  0  0  0  0  0  0  0
    3.9272    0.1427    1.1934 C   0  0  0  0  0  0  0  0  0  0  0  0
    3.3513    1.2989    0.7009 C   0  0  0  0  0  0  0  0  0  0  0  0
    2.2792    1.2210   -0.1683 C   0  0  0  0  0  0  0  0  0  0  0  0
    0.6208   -0.0981   -1.5005 C   0  0  0  0  0  0  0  0  0  0  0  0
   -0.6325   -0.1083   -0.7418 N   0  0  0  0  0  0  0  0  0  0  0  0
   -1.2294    1.0551   -0.4590 C   0  0  0  0  0  0  0  0  0  0  0  0
   -0.6939    2.0727   -0.8512 O   0  0  0  0  0  0  0  0  0  0  0  0
   -2.3731    1.1799    0.2239 N   0  0  0  0  0  0  0  0  0  0  0  0
   -3.0419    0.1082    0.6998 C   0  0  0  0  0  0  0  0  0  0  0  0
   -4.0777    0.2367    1.3166 O   0  0  0  0  0  0  0  0  0  0  0  0
   -2.4497   -1.2628    0.4336 C   0  0  0  0  0  0  0  0  0  0  0  0
   -1.1534   -1.2918   -0.3539 C   0  0  0  0  0  0  0  0  0  0  0  0
   -0.6016   -2.3384   -0.6182 O   0  0  0  0  0  0  0  0  0  0  0  0
    1.9743   -2.1334   -0.3504 H   0  0  0  0  0  0  0  0  0  0  0  0
    3.8822   -1.9946    1.2000 H   0  0  0  0  0  0  0  0  0  0  0  0
    4.7637    0.2036    1.8738 H   0  0  0  0  0  0  0  0  0  0  0  0
    3.7376    2.2630    0.9968 H   0  0  0  0  0  0  0  0  0  0  0  0
    1.8291    2.1243   -0.5528 H   0  0  0  0  0  0  0  0  0  0  0  0
    0.6344    0.7635   -2.1680 H   0  0  0  0  0  0  0  0  0  0  0  0
    0.6979   -1.0135   -2.0871 H   0  0  0  0  0  0  0  0  0  0  0  0
   -2.7323    2.0670    0.3820 H   0  0  0  0  0  0  0  0  0  0  0  0
   -2.2780   -1.7502    1.3933 H   0  0  0  0  0  0  0  0  0  0  0  0
   -3.1876   -1.8509   -0.1119 H   0  0  0  0  0  0  0  0  0  0  0  0
  1  2  2  0  0  0  0
  2  3  1  0  0  0  0
  3  4  2  0  0  0  0
  4  5  1  0  0  0  0
  5  6  2  0  0  0  0
  1  6  1  0  0  0  0
  1  7  1  0  0  0  0
  7  8  1  0  0  0  0
  8  9  1  0  0  0  0
  9 10  2  0  0  0  0
  9 11  1  0  0  0  0
 11 12  1  0  0  0  0
 12 13  2  0  0  0  0
 12 14  1  0  0  0  0
 14 15  1  0  0  0  0
  8 15  1  0  0  0  0
 15 16  2  0  0  0  0
  2 17  1  0  0  0  0
  3 18  1  0  0  0  0
  4 19  1  0  0  0  0
  5 20  1  0  0  0  0
  6 21  1  0  0  0  0
  7 22  1  0  0  0  0
  7 23  1  0  0  0  0
 11 24  1  0  0  0  0
 14 25  1  0  0  0  0
 14 26  1  0  0  0  0
M  END
$$$$
