C12H12N2O3
APtclcactv12111704583D 0   0.00000     0.00000
 
 29 30  0  0  0  0  0  0  0  0999 V2000
    1.5050    1.3255    0.0081 C   0  0  0  0  0  0  0  0  0  0  0  0
    2.3295   -0.9224    0.0083 C   0  0  0  0  0  0  0  0  0  0  0  0
    2.8025    1.8014    0.0343 C   0  0  0  0  0  0  0  0  0  0  0  0
    3.6271   -0.4464    0.0346 C   0  0  0  0  0  0  0  0  0  0  0  0
    3.8636    0.9155    0.0474 C   0  0  0  0  0  0  0  0  0  0  0  0
   -0.0881   -2.0815   -0.1247 C   0  0  0  0  0  0  0  0  0  0  0  0
   -1.5103   -2.6449   -0.1560 C   0  0  0  0  0  0  0  0  0  0  0  0
   -2.3797    1.0522   -1.9306 H   0  0  0  0  0  0  0  0  0  0  0  0
   -2.3716    0.8089    2.0532 H   0  0  0  0  0  0  0  0  0  0  0  0
    1.2685   -0.0364   -0.0052 C   0  0  0  0  0  0  0  0  0  0  0  0
   -0.3589   -0.2666   -2.3898 O   0  0  0  0  0  0  0  0  0  0  0  0
   -0.3520   -0.5595    2.3401 O   0  0  0  0  0  0  0  0  0  0  0  0
   -3.4573    1.6527    0.1076 O   0  0  0  0  0  0  0  0  0  0  0  0
   -0.8152   -0.0327   -1.2912 C   0  0  0  0  0  0  0  0  0  0  0  0
   -0.8098   -0.1895    1.2802 C   0  0  0  0  0  0  0  0  0  0  0  0
   -2.4472    0.9790    0.0644 C   0  0  0  0  0  0  0  0  0  0  0  0
   -0.1461   -0.5553   -0.0339 C   0  0  0  0  0  0  0  0  0  0  0  0
   -1.9343    0.7071   -1.1410 N   0  0  0  0  0  0  0  0  0  0  0  0
   -1.9293    0.5628    1.2257 N   0  0  0  0  0  0  0  0  0  0  0  0
    0.4404   -2.4772    0.7425 H   0  0  0  0  0  0  0  0  0  0  0  0
    0.4378   -2.3716   -1.0343 H   0  0  0  0  0  0  0  0  0  0  0  0
    0.6759    2.0176    0.0024 H   0  0  0  0  0  0  0  0  0  0  0  0
    2.1447   -1.9864   -0.0021 H   0  0  0  0  0  0  0  0  0  0  0  0
   -2.0362   -2.3547    0.7535 H   0  0  0  0  0  0  0  0  0  0  0  0
   -2.0388   -2.2492   -1.0233 H   0  0  0  0  0  0  0  0  0  0  0  0
   -1.4689   -3.7322   -0.2207 H   0  0  0  0  0  0  0  0  0  0  0  0
    2.9873    2.8655    0.0443 H   0  0  0  0  0  0  0  0  0  0  0  0
    4.4560   -1.1386    0.0455 H   0  0  0  0  0  0  0  0  0  0  0  0
    4.8774    1.2873    0.0672 H   0  0  0  0  0  0  0  0  0  0  0  0
 10 17  1  0  0  0  0
 14 17  1  0  0  0  0
 15 17  1  0  0  0  0
  6 17  1  0  0  0  0
  1 10  2  0  0  0  0
  2 10  1  0  0  0  0
 14 18  1  0  0  0  0
 11 14  2  0  0  0  0
 15 19  1  0  0  0  0
 12 15  2  0  0  0  0
  6  7  1  0  0  0  0
  1  3  1  0  0  0  0
  2  4  2  0  0  0  0
 16 18  1  0  0  0  0
  3  5  2  0  0  0  0
 13 16  2  0  0  0  0
 16 19  1  0  0  0  0
  4  5  1  0  0  0  0
  6 20  1  0  0  0  0
  6 21  1  0  0  0  0
  1 22  1  0  0  0  0
  2 23  1  0  0  0  0
  8 18  1  0  0  0  0
  9 19  1  0  0  0  0
  7 24  1  0  0  0  0
  7 25  1  0  0  0  0
  7 26  1  0  0  0  0
  3 27  1  0  0  0  0
  4 28  1  0  0  0  0
  5 29  1  0  0  0  0
M  END
$$$$
