C6H7O2P
APtclcactv12211716543D 0   0.00000     0.00000
 
 16 16  0  0  0  0  0  0  0  0999 V2000
    0.2087   -0.0855   -0.1074 C   0  0  0  0  0  0  0  0  0  0  0  0
    1.0022   -1.1919   -0.3464 C   0  0  0  0  0  0  0  0  0  0  0  0
    2.3763   -1.0946   -0.2317 C   0  0  0  0  0  0  0  0  0  0  0  0
    2.9570    0.1091    0.1215 C   0  0  0  0  0  0  0  0  0  0  0  0
    2.1635    1.2157    0.3596 C   0  0  0  0  0  0  0  0  0  0  0  0
    0.7893    1.1181    0.2463 C   0  0  0  0  0  0  0  0  0  0  0  0
   -1.5941   -0.2112   -0.2652 P   0  0  0  0  0  0  0  0  0  0  0  0
   -2.2285   -0.6370    1.1520 O   0  0  0  0  0  0  0  0  0  0  0  0
   -2.1456    1.0984   -0.6790 O   0  0  0  0  0  0  0  0  0  0  0  0
    0.5485   -2.1323   -0.6224 H   0  0  0  0  0  0  0  0  0  0  0  0
    2.9963   -1.9592   -0.4178 H   0  0  0  0  0  0  0  0  0  0  0  0
    4.0305    0.1849    0.2118 H   0  0  0  0  0  0  0  0  0  0  0  0
    2.6171    2.1560    0.6363 H   0  0  0  0  0  0  0  0  0  0  0  0
    0.1693    1.9826    0.4327 H   0  0  0  0  0  0  0  0  0  0  0  0
   -1.9166   -1.1904   -1.2416 H   0  0  0  0  0  0  0  0  0  0  0  0
   -3.1916   -0.7234    1.1417 H   0  0  0  0  0  0  0  0  0  0  0  0
  1  2  2  0  0  0  0
  2  3  1  0  0  0  0
  3  4  2  0  0  0  0
  4  5  1  0  0  0  0
  5  6  2  0  0  0  0
  1  6  1  0  0  0  0
  1  7  1  0  0  0  0
  7  8  1  0  0  0  0
  7  9  2  0  0  0  0
  2 10  1  0  0  0  0
  3 11  1  0  0  0  0
  4 12  1  0  0  0  0
  5 13  1  0  0  0  0
  6 14  1  0  0  0  0
  7 15  1  0  0  0  0
  8 16  1  0  0  0  0
M  END
$$$$
