C7H5NS
APtclcactv12151716143D 0   0.00000     0.00000
 
 14 14  0  0  0  0  0  0  0  0999 V2000
   -0.4392   -0.5286   -0.0021 C   0  0  0  0  0  0  0  0  0  0  0  0
   -1.6416   -1.2807   -0.0012 C   0  0  0  0  0  0  0  0  0  0  0  0
   -2.8418   -0.6335    0.0005 C   0  0  0  0  0  0  0  0  0  0  0  0
   -2.8906    0.7549    0.0013 C   0  0  0  0  0  0  0  0  0  0  0  0
   -1.7218    1.5058    0.0000 C   0  0  0  0  0  0  0  0  0  0  0  0
   -0.5061    0.8881   -0.0012 C   0  0  0  0  0  0  0  0  0  0  0  0
    0.7346   -1.1432    0.0017 N   0  0  0  0  0  0  0  0  0  0  0  0
    1.7905   -0.4741    0.0009 C   0  0  0  0  0  0  0  0  0  0  0  0
    3.1027    0.3575   -0.0001 S   0  0  0  0  0  0  0  0  0  0  0  0
   -1.6068   -2.3601   -0.0023 H   0  0  0  0  0  0  0  0  0  0  0  0
   -3.7593   -1.2032    0.0008 H   0  0  0  0  0  0  0  0  0  0  0  0
   -3.8474    1.2559    0.0027 H   0  0  0  0  0  0  0  0  0  0  0  0
   -1.7762    2.5844    0.0004 H   0  0  0  0  0  0  0  0  0  0  0  0
    0.4009    1.4745   -0.0022 H   0  0  0  0  0  0  0  0  0  0  0  0
  1  2  2  0  0  0  0
  2  3  1  0  0  0  0
  3  4  2  0  0  0  0
  4  5  1  0  0  0  0
  5  6  2  0  0  0  0
  1  6  1  0  0  0  0
  1  7  1  0  0  0  0
  7  8  2  0  0  0  0
  8  9  2  0  0  0  0
  2 10  1  0  0  0  0
  3 11  1  0  0  0  0
  4 12  1  0  0  0  0
  5 13  1  0  0  0  0
  6 14  1  0  0  0  0
M  END
$$$$
