C13H12N2O3
APtclcactv12071713253D 0   0.00000     0.00000
 
 30 31  0  0  0  0  0  0  0  0999 V2000
    1.7747    1.2480   -0.2841 C   0  0  0  0  0  0  0  0  0  0  0  0
    2.3003   -1.0376    0.1980 C   0  0  0  0  0  0  0  0  0  0  0  0
    3.1222    1.5329   -0.4024 C   0  0  0  0  0  0  0  0  0  0  0  0
    3.6478   -0.7527    0.0798 C   0  0  0  0  0  0  0  0  0  0  0  0
    4.0587    0.5325   -0.2207 C   0  0  0  0  0  0  0  0  0  0  0  0
   -0.2467   -1.8346    0.4780 C   0  0  0  0  0  0  0  0  0  0  0  0
   -2.1942    0.9773   -2.1023 H   0  0  0  0  0  0  0  0  0  0  0  0
   -2.0312    1.8298    1.7934 H   0  0  0  0  0  0  0  0  0  0  0  0
    1.3637   -0.0374    0.0159 C   0  0  0  0  0  0  0  0  0  0  0  0
   -0.3942   -0.6915   -2.1955 O   0  0  0  0  0  0  0  0  0  0  0  0
   -0.1961    0.3257    2.4287 O   0  0  0  0  0  0  0  0  0  0  0  0
   -3.0787    2.2631   -0.3022 O   0  0  0  0  0  0  0  0  0  0  0  0
   -0.7597   -0.1016   -1.2014 C   0  0  0  0  0  0  0  0  0  0  0  0
   -0.6519    0.4515    1.3124 C   0  0  0  0  0  0  0  0  0  0  0  0
   -2.1717    1.4664   -0.1658 C   0  0  0  0  0  0  0  0  0  0  0  0
   -1.7077   -2.1994    0.5368 C   0  0  0  0  0  0  0  0  0  0  0  0
   -0.1052   -0.3480    0.1448 C   0  0  0  0  0  0  0  0  0  0  0  0
   -1.7605    0.8029   -1.2524 N   0  0  0  0  0  0  0  0  0  0  0  0
   -1.6650    1.3079    1.0623 N   0  0  0  0  0  0  0  0  0  0  0  0
   -2.1688   -3.1774   -0.2027 C   0  0  0  0  0  0  0  0  0  0  0  0
    0.2174   -2.0363    1.4434 H   0  0  0  0  0  0  0  0  0  0  0  0
    0.2453   -2.4280   -0.2927 H   0  0  0  0  0  0  0  0  0  0  0  0
   -2.3745   -1.6546    1.1887 H   0  0  0  0  0  0  0  0  0  0  0  0
   -3.2159   -3.4389   -0.1606 H   0  0  0  0  0  0  0  0  0  0  0  0
   -1.5020   -3.7222   -0.8546 H   0  0  0  0  0  0  0  0  0  0  0  0
    1.0432    2.0305   -0.4216 H   0  0  0  0  0  0  0  0  0  0  0  0
    1.9793   -2.0418    0.4324 H   0  0  0  0  0  0  0  0  0  0  0  0
    3.4432    2.5370   -0.6371 H   0  0  0  0  0  0  0  0  0  0  0  0
    4.3795   -1.5341    0.2224 H   0  0  0  0  0  0  0  0  0  0  0  0
    5.1114    0.7550   -0.3138 H   0  0  0  0  0  0  0  0  0  0  0  0
  6 16  1  0  0  0  0
  6 17  1  0  0  0  0
 16 20  2  0  0  0  0
 13 17  1  0  0  0  0
 14 17  1  0  0  0  0
  9 17  1  0  0  0  0
 10 13  2  0  0  0  0
 13 18  1  0  0  0  0
 11 14  2  0  0  0  0
 14 19  1  0  0  0  0
  1  9  2  0  0  0  0
  2  9  1  0  0  0  0
 15 18  1  0  0  0  0
 15 19  1  0  0  0  0
  1  3  1  0  0  0  0
  2  4  2  0  0  0  0
 12 15  2  0  0  0  0
  3  5  2  0  0  0  0
  4  5  1  0  0  0  0
  6 21  1  0  0  0  0
  6 22  1  0  0  0  0
 16 23  1  0  0  0  0
 20 24  1  0  0  0  0
 20 25  1  0  0  0  0
  7 18  1  0  0  0  0
  8 19  1  0  0  0  0
  1 26  1  0  0  0  0
  2 27  1  0  0  0  0
  3 28  1  0  0  0  0
  4 29  1  0  0  0  0
  5 30  1  0  0  0  0
M  END
$$$$
