C12H9NS
APtclcactv12111704563D 0   0.00000     0.00000
 
 23 25  0  0  0  0  0  0  0  0999 V2000
   -2.3422   -1.5827    0.0013 C   0  0  0  0  0  0  0  0  0  0  0  0
   -3.5818   -1.0327    0.2677 C   0  0  0  0  0  0  0  0  0  0  0  0
   -3.7278    0.3380    0.3619 C   0  0  0  0  0  0  0  0  0  0  0  0
   -2.6307    1.1624    0.1921 C   0  0  0  0  0  0  0  0  0  0  0  0
   -1.3818    0.6174   -0.0749 C   0  0  0  0  0  0  0  0  0  0  0  0
   -0.0001    1.6882   -0.2819 S   0  0  0  0  0  0  0  0  0  0  0  0
    1.3816    0.6174   -0.0733 C   0  0  0  0  0  0  0  0  0  0  0  0
    2.6305    1.1624    0.1935 C   0  0  0  0  0  0  0  0  0  0  0  0
    3.7275    0.3383    0.3627 C   0  0  0  0  0  0  0  0  0  0  0  0
    3.5823   -1.0325    0.2660 C   0  0  0  0  0  0  0  0  0  0  0  0
    2.3426   -1.5826   -0.0002 C   0  0  0  0  0  0  0  0  0  0  0  0
    1.2324   -0.7625   -0.1728 C   0  0  0  0  0  0  0  0  0  0  0  0
    0.0000   -1.3512   -0.4469 N   0  0  0  0  0  0  0  0  0  0  0  0
   -1.2326   -0.7626   -0.1742 C   0  0  0  0  0  0  0  0  0  0  0  0
   -2.2337   -2.6551   -0.0665 H   0  0  0  0  0  0  0  0  0  0  0  0
   -4.4388   -1.6761    0.4022 H   0  0  0  0  0  0  0  0  0  0  0  0
   -4.6981    0.7653    0.5676 H   0  0  0  0  0  0  0  0  0  0  0  0
   -2.7457    2.2336    0.2670 H   0  0  0  0  0  0  0  0  0  0  0  0
    2.7452    2.2336    0.2695 H   0  0  0  0  0  0  0  0  0  0  0  0
    4.6975    0.7656    0.5699 H   0  0  0  0  0  0  0  0  0  0  0  0
    4.4397   -1.6756    0.3985 H   0  0  0  0  0  0  0  0  0  0  0  0
    2.2352   -2.6547   -0.0740 H   0  0  0  0  0  0  0  0  0  0  0  0
    0.0003   -2.2309   -0.8556 H   0  0  0  0  0  0  0  0  0  0  0  0
  1  2  2  0  0  0  0
  2  3  1  0  0  0  0
  3  4  2  0  0  0  0
  4  5  1  0  0  0  0
  5  6  1  0  0  0  0
  6  7  1  0  0  0  0
  7  8  2  0  0  0  0
  8  9  1  0  0  0  0
  9 10  2  0  0  0  0
 10 11  1  0  0  0  0
 11 12  2  0  0  0  0
  7 12  1  0  0  0  0
 12 13  1  0  0  0  0
 13 14  1  0  0  0  0
  1 14  1  0  0  0  0
  5 14  2  0  0  0  0
  1 15  1  0  0  0  0
  2 16  1  0  0  0  0
  3 17  1  0  0  0  0
  4 18  1  0  0  0  0
  8 19  1  0  0  0  0
  9 20  1  0  0  0  0
 10 21  1  0  0  0  0
 11 22  1  0  0  0  0
 13 23  1  0  0  0  0
M  END
$$$$
