C9H11HgNS2
APtclcactv12151716463D 0   0.00000     0.00000
 
 24 23  0  0  0  0  0  0  0  0999 V2000
   -9.1042   -1.9717    0.5157 C   0  0  0  0  0  0  0  0  0  0  0  0
   -9.5805   -0.6873   -0.0036 N   0  0  0  0  0  0  0  0  0  0  0  0
   -8.8089    0.4121    0.1069 C   0  0  0  0  0  0  0  0  0  0  0  0
   -9.3655    1.9131   -0.4999 S   0  5  0  0  0  0  0  0  0  0  0  0
   -7.2721    0.3078    0.8541 S   0  0  0  0  0  0  0  0  0  0  0  0
  -10.8956   -0.5980   -0.6429 C   0  0  0  0  0  0  0  0  0  0  0  0
    4.5155    0.8191    0.0505 C   0  0  0  0  0  0  0  0  0  0  0  0
    4.0655    2.0313   -0.4382 C   0  0  0  0  0  0  0  0  0  0  0  0
    4.8557    3.1596   -0.3222 C   0  0  0  0  0  0  0  0  0  0  0  0
    6.0958    3.0757    0.2828 C   0  0  0  0  0  0  0  0  0  0  0  0
    6.5455    1.8637    0.7722 C   0  0  0  0  0  0  0  0  0  0  0  0
    5.7559    0.7351    0.6550 C   0  0  0  0  0  0  0  0  0  0  0  0
    3.3114   -0.8932   -0.1179 Hg  0  3  0  0  0  0  0  0  0  0  0  0
   -9.4145   -2.0811    1.5549 H   0  0  0  0  0  0  0  0  0  0  0  0
   -9.5273   -2.7827   -0.0771 H   0  0  0  0  0  0  0  0  0  0  0  0
   -8.0164   -2.0070    0.4556 H   0  0  0  0  0  0  0  0  0  0  0  0
  -11.6502   -0.3667    0.1089 H   0  0  0  0  0  0  0  0  0  0  0  0
  -10.8804    0.1892   -1.3967 H   0  0  0  0  0  0  0  0  0  0  0  0
  -11.1347   -1.5501   -1.1167 H   0  0  0  0  0  0  0  0  0  0  0  0
    3.0966    2.0968   -0.9109 H   0  0  0  0  0  0  0  0  0  0  0  0
    4.5043    4.1065   -0.7046 H   0  0  0  0  0  0  0  0  0  0  0  0
    6.7134    3.9571    0.3727 H   0  0  0  0  0  0  0  0  0  0  0  0
    7.5146    1.7980    1.2443 H   0  0  0  0  0  0  0  0  0  0  0  0
    6.1073   -0.2119    1.0371 H   0  0  0  0  0  0  0  0  0  0  0  0
  1  2  1  0  0  0  0
  2  3  1  0  0  0  0
  3  4  1  0  0  0  0
  3  5  2  0  0  0  0
  2  6  1  0  0  0  0
  7  8  2  0  0  0  0
  8  9  1  0  0  0  0
  9 10  2  0  0  0  0
 10 11  1  0  0  0  0
 11 12  2  0  0  0  0
  7 12  1  0  0  0  0
  7 13  1  0  0  0  0
  1 14  1  0  0  0  0
  1 15  1  0  0  0  0
  1 16  1  0  0  0  0
  6 17  1  0  0  0  0
  6 18  1  0  0  0  0
  6 19  1  0  0  0  0
  8 20  1  0  0  0  0
  9 21  1  0  0  0  0
 10 22  1  0  0  0  0
 11 23  1  0  0  0  0
 12 24  1  0  0  0  0
M  CHG  2   4  -1  13   1
M  END
$$$$
