C13H10O3
APtclcactv12071713243D 0   0.00000     0.00000
 
 26 27  0  0  0  0  0  0  0  0999 V2000
   -0.2178    0.1580    0.0166 C   0  0  0  0  0  0  0  0  0  0  0  0
   -1.6603   -0.1442    0.0305 C   0  0  0  0  0  0  0  0  0  0  0  0
   -2.5987    0.8880   -0.1135 C   0  0  0  0  0  0  0  0  0  0  0  0
   -2.1831    2.1701   -0.2663 O   0  0  0  0  0  0  0  0  0  0  0  0
   -3.9532    0.5918   -0.0993 C   0  0  0  0  0  0  0  0  0  0  0  0
   -4.3748   -0.7141    0.0559 C   0  0  0  0  0  0  0  0  0  0  0  0
   -3.4513   -1.7366    0.1984 C   0  0  0  0  0  0  0  0  0  0  0  0
   -2.1010   -1.4616    0.1814 C   0  0  0  0  0  0  0  0  0  0  0  0
    0.1615    1.3043   -0.1200 O   0  0  0  0  0  0  0  0  0  0  0  0
    0.6804   -0.8364    0.1608 O   0  0  0  0  0  0  0  0  0  0  0  0
    1.9943   -0.4963    0.0888 C   0  0  0  0  0  0  0  0  0  0  0  0
    2.6141    0.1148    1.1692 C   0  0  0  0  0  0  0  0  0  0  0  0
    3.9498    0.4591    1.0936 C   0  0  0  0  0  0  0  0  0  0  0  0
    4.6688    0.1955   -0.0576 C   0  0  0  0  0  0  0  0  0  0  0  0
    4.0533   -0.4130   -1.1359 C   0  0  0  0  0  0  0  0  0  0  0  0
    2.7194   -0.7649   -1.0631 C   0  0  0  0  0  0  0  0  0  0  0  0
   -2.0482    2.4328   -1.1871 H   0  0  0  0  0  0  0  0  0  0  0  0
   -4.6795    1.3835   -0.2095 H   0  0  0  0  0  0  0  0  0  0  0  0
   -5.4310   -0.9394    0.0666 H   0  0  0  0  0  0  0  0  0  0  0  0
   -3.7910   -2.7546    0.3196 H   0  0  0  0  0  0  0  0  0  0  0  0
   -1.3847   -2.2621    0.2930 H   0  0  0  0  0  0  0  0  0  0  0  0
    2.0527    0.3216    2.0683 H   0  0  0  0  0  0  0  0  0  0  0  0
    4.4327    0.9348    1.9343 H   0  0  0  0  0  0  0  0  0  0  0  0
    5.7129    0.4657   -0.1149 H   0  0  0  0  0  0  0  0  0  0  0  0
    4.6169   -0.6172   -2.0343 H   0  0  0  0  0  0  0  0  0  0  0  0
    2.2392   -1.2405   -1.9055 H   0  0  0  0  0  0  0  0  0  0  0  0
  1  2  1  0  0  0  0
  2  3  1  0  0  0  0
  3  4  1  0  0  0  0
  3  5  2  0  0  0  0
  5  6  1  0  0  0  0
  6  7  2  0  0  0  0
  7  8  1  0  0  0  0
  2  8  2  0  0  0  0
  1  9  2  0  0  0  0
  1 10  1  0  0  0  0
 10 11  1  0  0  0  0
 11 12  2  0  0  0  0
 12 13  1  0  0  0  0
 13 14  2  0  0  0  0
 14 15  1  0  0  0  0
 15 16  2  0  0  0  0
 11 16  1  0  0  0  0
  4 17  1  0  0  0  0
  5 18  1  0  0  0  0
  6 19  1  0  0  0  0
  7 20  1  0  0  0  0
  8 21  1  0  0  0  0
 12 22  1  0  0  0  0
 13 23  1  0  0  0  0
 14 24  1  0  0  0  0
 15 25  1  0  0  0  0
 16 26  1  0  0  0  0
M  END
$$$$
