C19H20N2O2
APtclcactv12211717203D 0   0.00000     0.00000
 
 43 45  0  0  0  0  0  0  0  0999 V2000
    1.8021   -2.4979   -0.6152 C   0  0  0  0  0  0  0  0  0  0  0  0
    2.7160   -0.6504    0.6214 C   0  0  0  0  0  0  0  0  0  0  0  0
    0.8032    2.7286    0.7379 C   0  0  0  0  0  0  0  0  0  0  0  0
    1.8461    1.3720   -0.9502 C   0  0  0  0  0  0  0  0  0  0  0  0
    3.0788   -2.9742   -0.8404 C   0  0  0  0  0  0  0  0  0  0  0  0
    3.9901   -1.1325    0.3935 C   0  0  0  0  0  0  0  0  0  0  0  0
    1.6931    3.7484    0.4633 C   0  0  0  0  0  0  0  0  0  0  0  0
    2.7331    2.3957   -1.2200 C   0  0  0  0  0  0  0  0  0  0  0  0
    4.1715   -2.2926   -0.3368 C   0  0  0  0  0  0  0  0  0  0  0  0
    2.6567    3.5826   -0.5147 C   0  0  0  0  0  0  0  0  0  0  0  0
   -2.9981   -1.0017   -0.2326 C   0  0  0  0  0  0  0  0  0  0  0  0
   -4.2272   -0.1315    0.0376 C   0  0  0  0  0  0  0  0  0  0  0  0
   -5.3092   -0.4411   -0.9989 C   0  0  0  0  0  0  0  0  0  0  0  0
   -6.5383    0.4290   -0.7287 C   0  0  0  0  0  0  0  0  0  0  0  0
    1.6165   -1.3328    0.1175 C   0  0  0  0  0  0  0  0  0  0  0  0
    0.8770    1.5355    0.0310 C   0  0  0  0  0  0  0  0  0  0  0  0
   -0.7437   -2.8344    0.7380 O   0  0  0  0  0  0  0  0  0  0  0  0
   -1.9234    1.7424    0.6011 O   0  0  0  0  0  0  0  0  0  0  0  0
   -1.9162   -0.6921    0.8040 C   0  0  0  0  0  0  0  0  0  0  0  0
   -0.7357   -1.6259    0.6346 C   0  0  0  0  0  0  0  0  0  0  0  0
   -1.3311    0.6846    0.5660 C   0  0  0  0  0  0  0  0  0  0  0  0
    0.3244   -0.8473    0.3471 N   0  0  0  0  0  0  0  0  0  0  0  0
   -0.0228    0.5002    0.3071 N   0  0  0  0  0  0  0  0  0  0  0  0
   -3.2757   -2.0536   -0.1650 H   0  0  0  0  0  0  0  0  0  0  0  0
   -2.6157   -0.7902   -1.2312 H   0  0  0  0  0  0  0  0  0  0  0  0
    0.9493   -3.0284   -1.0122 H   0  0  0  0  0  0  0  0  0  0  0  0
    2.5749    0.2557    1.1919 H   0  0  0  0  0  0  0  0  0  0  0  0
    0.0535    2.8572    1.5046 H   0  0  0  0  0  0  0  0  0  0  0  0
    1.9059    0.4455   -1.5019 H   0  0  0  0  0  0  0  0  0  0  0  0
   -4.6096   -0.3430    1.0362 H   0  0  0  0  0  0  0  0  0  0  0  0
   -3.9497    0.9204   -0.0299 H   0  0  0  0  0  0  0  0  0  0  0  0
    3.2238   -3.8802   -1.4101 H   0  0  0  0  0  0  0  0  0  0  0  0
    4.8456   -0.6021    0.7848 H   0  0  0  0  0  0  0  0  0  0  0  0
    1.6363    4.6765    1.0126 H   0  0  0  0  0  0  0  0  0  0  0  0
    3.4872    2.2690   -1.9827 H   0  0  0  0  0  0  0  0  0  0  0  0
    5.1688   -2.6673   -0.5140 H   0  0  0  0  0  0  0  0  0  0  0  0
    3.3512    4.3818   -0.7278 H   0  0  0  0  0  0  0  0  0  0  0  0
   -4.9267   -0.2296   -1.9975 H   0  0  0  0  0  0  0  0  0  0  0  0
   -5.5867   -1.4930   -0.9314 H   0  0  0  0  0  0  0  0  0  0  0  0
   -7.3091    0.2085   -1.4672 H   0  0  0  0  0  0  0  0  0  0  0  0
   -6.9207    0.2176    0.2699 H   0  0  0  0  0  0  0  0  0  0  0  0
   -6.2607    1.4809   -0.7962 H   0  0  0  0  0  0  0  0  0  0  0  0
   -2.3204   -0.7663    1.8135 H   0  0  0  0  0  0  0  0  0  0  0  0
 17 20  2  0  0  0  0
 18 21  2  0  0  0  0
 22 23  1  0  0  0  0
 20 22  1  0  0  0  0
 15 22  1  0  0  0  0
 21 23  1  0  0  0  0
 16 23  1  0  0  0  0
 19 20  1  0  0  0  0
 19 21  1  0  0  0  0
 11 19  1  0  0  0  0
  1 15  2  0  0  0  0
  2 15  1  0  0  0  0
  3 16  2  0  0  0  0
  4 16  1  0  0  0  0
 11 12  1  0  0  0  0
  1  5  1  0  0  0  0
  2  6  2  0  0  0  0
  3  7  1  0  0  0  0
  4  8  2  0  0  0  0
 12 13  1  0  0  0  0
  5  9  2  0  0  0  0
  6  9  1  0  0  0  0
  7 10  2  0  0  0  0
  8 10  1  0  0  0  0
 13 14  1  0  0  0  0
 11 24  1  0  0  0  0
 11 25  1  0  0  0  0
  1 26  1  0  0  0  0
  2 27  1  0  0  0  0
  3 28  1  0  0  0  0
  4 29  1  0  0  0  0
 12 30  1  0  0  0  0
 12 31  1  0  0  0  0
  5 32  1  0  0  0  0
  6 33  1  0  0  0  0
  7 34  1  0  0  0  0
  8 35  1  0  0  0  0
  9 36  1  0  0  0  0
 10 37  1  0  0  0  0
 13 38  1  0  0  0  0
 13 39  1  0  0  0  0
 14 40  1  0  0  0  0
 14 41  1  0  0  0  0
 14 42  1  0  0  0  0
 19 43  1  0  0  0  0
M  END
$$$$
