C6H6O3
APtclcactv12211716533D 0   0.00000     0.00000
 
 15 15  0  0  0  0  0  0  0  0999 V2000
   -1.3861   -0.0393    0.0205 C   0  0  0  0  0  0  0  0  0  0  0  0
   -2.7442   -0.0777    0.0484 O   0  0  0  0  0  0  0  0  0  0  0  0
   -0.7271    1.1808    0.0071 C   0  0  0  0  0  0  0  0  0  0  0  0
    0.6588    1.2201   -0.0214 C   0  0  0  0  0  0  0  0  0  0  0  0
    1.3045    2.4158   -0.0349 O   0  0  0  0  0  0  0  0  0  0  0  0
    1.3858    0.0393   -0.0357 C   0  0  0  0  0  0  0  0  0  0  0  0
    0.7268   -1.1809   -0.0219 C   0  0  0  0  0  0  0  0  0  0  0  0
    1.4392   -2.3380   -0.0363 O   0  0  0  0  0  0  0  0  0  0  0  0
   -0.6590   -1.2201    0.0111 C   0  0  0  0  0  0  0  0  0  0  0  0
   -3.1554   -0.0887   -0.8268 H   0  0  0  0  0  0  0  0  0  0  0  0
   -1.2933    2.1005    0.0186 H   0  0  0  0  0  0  0  0  0  0  0  0
    1.5096    2.7620    0.8444 H   0  0  0  0  0  0  0  0  0  0  0  0
    2.4651    0.0698   -0.0579 H   0  0  0  0  0  0  0  0  0  0  0  0
    1.6636   -2.6728    0.8427 H   0  0  0  0  0  0  0  0  0  0  0  0
   -1.1722   -2.1703    0.0218 H   0  0  0  0  0  0  0  0  0  0  0  0
  1  2  1  0  0  0  0
  1  3  2  0  0  0  0
  3  4  1  0  0  0  0
  4  5  1  0  0  0  0
  4  6  2  0  0  0  0
  6  7  1  0  0  0  0
  7  8  1  0  0  0  0
  7  9  2  0  0  0  0
  1  9  1  0  0  0  0
  2 10  1  0  0  0  0
  3 11  1  0  0  0  0
  5 12  1  0  0  0  0
  6 13  1  0  0  0  0
  8 14  1  0  0  0  0
  9 15  1  0  0  0  0
M  END
$$$$
