C12H15ClNO4PS2
APtclcactv12111704593D 0   0.00000     0.00000
 
 36 37  0  0  0  0  0  0  0  0999 V2000
    2.5514   -1.1243    0.0527 C   0  0  0  0  0  0  0  0  0  0  0  0
    4.5472    0.8039    0.1391 C   0  0  0  0  0  0  0  0  0  0  0  0
    3.8346   -1.4694    0.4297 C   0  0  0  0  0  0  0  0  0  0  0  0
   -0.2189    0.2182   -0.8836 C   0  0  0  0  0  0  0  0  0  0  0  0
   -1.8979   -2.5189   -0.9551 C   0  0  0  0  0  0  0  0  0  0  0  0
   -4.7274    1.1819    1.5160 C   0  0  0  0  0  0  0  0  0  0  0  0
   -2.1526   -4.0166   -1.1366 C   0  0  0  0  0  0  0  0  0  0  0  0
   -5.6883    1.0760    2.7019 C   0  0  0  0  0  0  0  0  0  0  0  0
    4.8301   -0.5072    0.4730 C   0  0  0  0  0  0  0  0  0  0  0  0
    0.6191    2.9945   -1.2457 O   0  0  0  0  0  0  0  0  0  0  0  0
   -2.9653   -1.9423   -0.2000 O   0  0  0  0  0  0  0  0  0  0  0  0
   -4.1556   -0.1004    1.2502 O   0  0  0  0  0  0  0  0  0  0  0  0
    1.4003    2.1357   -0.8843 C   0  0  0  0  0  0  0  0  0  0  0  0
    2.2608    0.1887   -0.2830 C   0  0  0  0  0  0  0  0  0  0  0  0
    3.2620    1.1586   -0.2399 C   0  0  0  0  0  0  0  0  0  0  0  0
    6.4400   -0.9500    0.9481 Cl  0  0  0  0  0  0  0  0  0  0  0  0
    2.6998    2.3343   -0.6132 O   0  0  0  0  0  0  0  0  0  0  0  0
   -3.0963   -0.3598    0.0658 P   0  0  0  0  0  0  0  0  0  0  0  0
    1.0955    0.8367   -0.6937 N   0  0  0  0  0  0  0  0  0  0  0  0
   -1.2064    0.4218    0.6244 S   0  0  0  0  0  0  0  0  0  0  0  0
   -3.6831    0.4847   -1.4883 S   0  0  0  0  0  0  0  0  0  0  0  0
   -0.7287    0.6976   -1.7193 H   0  0  0  0  0  0  0  0  0  0  0  0
   -0.0936   -0.8437   -1.0953 H   0  0  0  0  0  0  0  0  0  0  0  0
    1.7775   -1.8766    0.0152 H   0  0  0  0  0  0  0  0  0  0  0  0
   -0.9570   -2.3720   -0.4247 H   0  0  0  0  0  0  0  0  0  0  0  0
   -1.8431   -2.0386   -1.9320 H   0  0  0  0  0  0  0  0  0  0  0  0
   -5.2720    1.5262    0.6368 H   0  0  0  0  0  0  0  0  0  0  0  0
   -3.9345    1.8913    1.7530 H   0  0  0  0  0  0  0  0  0  0  0  0
    5.3262    1.5510    0.1745 H   0  0  0  0  0  0  0  0  0  0  0  0
    4.0623   -2.4921    0.6919 H   0  0  0  0  0  0  0  0  0  0  0  0
   -2.2074   -4.4968   -0.1597 H   0  0  0  0  0  0  0  0  0  0  0  0
   -3.0935   -4.1634   -1.6670 H   0  0  0  0  0  0  0  0  0  0  0  0
   -1.3384   -4.4564   -1.7126 H   0  0  0  0  0  0  0  0  0  0  0  0
   -6.4812    0.3667    2.4648 H   0  0  0  0  0  0  0  0  0  0  0  0
   -5.1437    0.7317    3.5811 H   0  0  0  0  0  0  0  0  0  0  0  0
   -6.1244    2.0542    2.9046 H   0  0  0  0  0  0  0  0  0  0  0  0
  4 20  1  0  0  0  0
 18 20  1  0  0  0  0
  4 19  1  0  0  0  0
 14 19  1  0  0  0  0
 13 19  1  0  0  0  0
 11 18  1  0  0  0  0
 12 18  1  0  0  0  0
 18 21  2  0  0  0  0
 14 15  2  0  0  0  0
  1 14  1  0  0  0  0
 10 13  2  0  0  0  0
 13 17  1  0  0  0  0
  5 11  1  0  0  0  0
  6 12  1  0  0  0  0
 15 17  1  0  0  0  0
  2 15  1  0  0  0  0
  1  3  2  0  0  0  0
  5  7  1  0  0  0  0
  6  8  1  0  0  0  0
  2  9  2  0  0  0  0
  3  9  1  0  0  0  0
  9 16  1  0  0  0  0
  4 22  1  0  0  0  0
  4 23  1  0  0  0  0
  1 24  1  0  0  0  0
  5 25  1  0  0  0  0
  5 26  1  0  0  0  0
  6 27  1  0  0  0  0
  6 28  1  0  0  0  0
  2 29  1  0  0  0  0
  3 30  1  0  0  0  0
  7 31  1  0  0  0  0
  7 32  1  0  0  0  0
  7 33  1  0  0  0  0
  8 34  1  0  0  0  0
  8 35  1  0  0  0  0
  8 36  1  0  0  0  0
M  END
$$$$
