C11H12NO4PS2
APtclcactv12211717323D 0   0.00000     0.00000
 
 31 32  0  0  0  0  0  0  0  0999 V2000
    4.0968   -0.3773    0.9633 C   0  0  0  0  0  0  0  0  0  0  0  0
    3.3328    1.5117   -0.9390 C   0  0  0  0  0  0  0  0  0  0  0  0
    4.9206    0.6985    0.6710 C   0  0  0  0  0  0  0  0  0  0  0  0
    4.5416    1.6353   -0.2721 C   0  0  0  0  0  0  0  0  0  0  0  0
   -0.4120   -1.8656   -0.7461 C   0  0  0  0  0  0  0  0  0  0  0  0
   -0.5341    1.9345    1.4980 C   0  0  0  0  0  0  0  0  0  0  0  0
   -3.7227   -0.5511   -1.8888 C   0  0  0  0  0  0  0  0  0  0  0  0
    1.7491   -2.4816    1.0737 O   0  0  0  0  0  0  0  0  0  0  0  0
    0.5141    0.5706   -1.9986 O   0  0  0  0  0  0  0  0  0  0  0  0
   -1.0511    1.4834    0.2446 O   0  0  0  0  0  0  0  0  0  0  0  0
   -2.8435    0.4542   -1.3804 O   0  0  0  0  0  0  0  0  0  0  0  0
    1.7863   -1.5006    0.3588 C   0  0  0  0  0  0  0  0  0  0  0  0
    1.1780    0.0029   -1.1548 C   0  0  0  0  0  0  0  0  0  0  0  0
    2.8852   -0.5135    0.3048 C   0  0  0  0  0  0  0  0  0  0  0  0
    2.4988    0.4417   -0.6569 C   0  0  0  0  0  0  0  0  0  0  0  0
   -2.2698    0.4381    0.1238 P   0  0  0  0  0  0  0  0  0  0  0  0
    0.8344   -1.1305   -0.5168 N   0  0  0  0  0  0  0  0  0  0  0  0
   -1.5794   -1.5099    0.5961 S   0  0  0  0  0  0  0  0  0  0  0  0
   -3.6231    0.9221    1.3101 S   0  0  0  0  0  0  0  0  0  0  0  0
    4.4000   -1.1087    1.6978 H   0  0  0  0  0  0  0  0  0  0  0  0
    3.0418    2.2467   -1.6749 H   0  0  0  0  0  0  0  0  0  0  0  0
    5.8649    0.8056    1.1840 H   0  0  0  0  0  0  0  0  0  0  0  0
    5.1920    2.4692   -0.4911 H   0  0  0  0  0  0  0  0  0  0  0  0
   -0.8464   -1.5566   -1.6969 H   0  0  0  0  0  0  0  0  0  0  0  0
   -0.2035   -2.9351   -0.7723 H   0  0  0  0  0  0  0  0  0  0  0  0
   -1.3247    2.4326    2.0592 H   0  0  0  0  0  0  0  0  0  0  0  0
   -0.1664    1.0811    2.0678 H   0  0  0  0  0  0  0  0  0  0  0  0
    0.2834    2.6340    1.3233 H   0  0  0  0  0  0  0  0  0  0  0  0
   -3.9418   -0.3460   -2.9367 H   0  0  0  0  0  0  0  0  0  0  0  0
   -3.2468   -1.5278   -1.8015 H   0  0  0  0  0  0  0  0  0  0  0  0
   -4.6500   -0.5463   -1.3160 H   0  0  0  0  0  0  0  0  0  0  0  0
 14 15  2  0  0  0  0
 12 14  1  0  0  0  0
  1 14  1  0  0  0  0
 13 15  1  0  0  0  0
  2 15  1  0  0  0  0
 12 17  1  0  0  0  0
  8 12  2  0  0  0  0
  1  3  2  0  0  0  0
  9 13  2  0  0  0  0
  2  4  2  0  0  0  0
  5 17  1  0  0  0  0
  5 18  1  0  0  0  0
 16 18  1  0  0  0  0
 10 16  1  0  0  0  0
 11 16  1  0  0  0  0
 16 19  2  0  0  0  0
  6 10  1  0  0  0  0
  7 11  1  0  0  0  0
 13 17  1  0  0  0  0
  3  4  1  0  0  0  0
  1 20  1  0  0  0  0
  2 21  1  0  0  0  0
  3 22  1  0  0  0  0
  4 23  1  0  0  0  0
  5 24  1  0  0  0  0
  5 25  1  0  0  0  0
  6 26  1  0  0  0  0
  6 27  1  0  0  0  0
  6 28  1  0  0  0  0
  7 29  1  0  0  0  0
  7 30  1  0  0  0  0
  7 31  1  0  0  0  0
M  END
$$$$
