C8H6O2
APtclcactv12151716263D 0   0.00000     0.00000
 
 16 16  0  0  0  0  0  0  0  0999 V2000
   -1.3930    1.0600   -0.0002 C   0  0  0  0  0  0  0  0  0  0  0  0
    1.3930    1.0600    0.0005 C   0  0  0  0  0  0  0  0  0  0  0  0
   -0.6920    2.2516   -0.0003 C   0  0  0  0  0  0  0  0  0  0  0  0
    0.6920    2.2516   -0.0001 C   0  0  0  0  0  0  0  0  0  0  0  0
   -0.7057   -0.1528   -0.0000 C   0  0  0  0  0  0  0  0  0  0  0  0
    0.7057   -0.1528    0.0001 C   0  0  0  0  0  0  0  0  0  0  0  0
   -2.6597   -1.4205   -0.0001 O   0  0  0  0  0  0  0  0  0  0  0  0
    2.6597   -1.4205   -0.0001 O   0  0  0  0  0  0  0  0  0  0  0  0
   -1.4473   -1.4254    0.0001 C   0  0  0  0  0  0  0  0  0  0  0  0
    1.4473   -1.4254   -0.0002 C   0  0  0  0  0  0  0  0  0  0  0  0
   -2.4729    1.0688    0.0042 H   0  0  0  0  0  0  0  0  0  0  0  0
   -0.9111   -2.3629    0.0002 H   0  0  0  0  0  0  0  0  0  0  0  0
    2.4730    1.0688    0.0003 H   0  0  0  0  0  0  0  0  0  0  0  0
    0.9111   -2.3629   -0.0005 H   0  0  0  0  0  0  0  0  0  0  0  0
   -1.2281    3.1891   -0.0008 H   0  0  0  0  0  0  0  0  0  0  0  0
    1.2281    3.1891   -0.0002 H   0  0  0  0  0  0  0  0  0  0  0  0
  5  6  2  0  0  0  0
  1  5  1  0  0  0  0
  5  9  1  0  0  0  0
  2  6  1  0  0  0  0
  6 10  1  0  0  0  0
  1  3  2  0  0  0  0
  7  9  2  0  0  0  0
  2  4  2  0  0  0  0
  8 10  2  0  0  0  0
  3  4  1  0  0  0  0
  1 11  1  0  0  0  0
  9 12  1  0  0  0  0
  2 13  1  0  0  0  0
 10 14  1  0  0  0  0
  3 15  1  0  0  0  0
  4 16  1  0  0  0  0
M  END
$$$$
