C8H8N2O2
APtclcactv12151716283D 0   0.00000     0.00000
 
 20 20  0  0  0  0  0  0  0  0999 V2000
    0.6529   -1.6066   -0.1023 C   0  0  0  0  0  0  0  0  0  0  0  0
   -0.4462   -0.6185   -0.0343 C   0  0  0  0  0  0  0  0  0  0  0  0
   -0.1577    0.7552    0.0660 C   0  0  0  0  0  0  0  0  0  0  0  0
    1.2464    1.2200    0.1036 C   0  0  0  0  0  0  0  0  0  0  0  0
    2.0106    0.7781    0.9389 O   0  0  0  0  0  0  0  0  0  0  0  0
    1.6779    2.1333   -0.7886 N   0  0  0  0  0  0  0  0  0  0  0  0
   -1.2012    1.6741    0.1293 C   0  0  0  0  0  0  0  0  0  0  0  0
   -2.5117    1.2352    0.0934 C   0  0  0  0  0  0  0  0  0  0  0  0
   -2.7952   -0.1151   -0.0047 C   0  0  0  0  0  0  0  0  0  0  0  0
   -1.7714   -1.0416   -0.0749 C   0  0  0  0  0  0  0  0  0  0  0  0
    1.8055   -1.2291   -0.1803 O   0  0  0  0  0  0  0  0  0  0  0  0
    0.3763   -2.9253   -0.0723 N   0  0  0  0  0  0  0  0  0  0  0  0
    1.0680    2.4860   -1.4553 H   0  0  0  0  0  0  0  0  0  0  0  0
    2.5985    2.4380   -0.7640 H   0  0  0  0  0  0  0  0  0  0  0  0
   -0.9871    2.7298    0.2067 H   0  0  0  0  0  0  0  0  0  0  0  0
   -3.3190    1.9509    0.1427 H   0  0  0  0  0  0  0  0  0  0  0  0
   -3.8225   -0.4473   -0.0312 H   0  0  0  0  0  0  0  0  0  0  0  0
   -2.0001   -2.0944   -0.1517 H   0  0  0  0  0  0  0  0  0  0  0  0
   -0.5434   -3.2266   -0.0060 H   0  0  0  0  0  0  0  0  0  0  0  0
    1.0968   -3.5732   -0.1169 H   0  0  0  0  0  0  0  0  0  0  0  0
  1  2  1  0  0  0  0
  2  3  1  0  0  0  0
  3  4  1  0  0  0  0
  4  5  2  0  0  0  0
  4  6  1  0  0  0  0
  3  7  2  0  0  0  0
  7  8  1  0  0  0  0
  8  9  2  0  0  0  0
  9 10  1  0  0  0  0
  2 10  2  0  0  0  0
  1 11  2  0  0  0  0
  1 12  1  0  0  0  0
  6 13  1  0  0  0  0
  6 14  1  0  0  0  0
  7 15  1  0  0  0  0
  8 16  1  0  0  0  0
  9 17  1  0  0  0  0
 10 18  1  0  0  0  0
 12 19  1  0  0  0  0
 12 20  1  0  0  0  0
M  END
$$$$
