C6H2ClN3O6
APtclcactv12211716473D 0   0.00000     0.00000
 
 18 18  0  0  0  0  0  0  0  0999 V2000
   -0.9466   -0.0000    0.0020 C   0  0  0  0  0  0  0  0  0  0  0  0
   -0.2546   -1.1980    0.0014 C   0  0  0  0  0  0  0  0  0  0  0  0
   -0.9942   -2.4801    0.0013 N   0  3  0  0  0  0  0  0  0  0  0  0
   -0.3849   -3.5348    0.0008 O   0  0  0  0  0  0  0  0  0  0  0  0
   -2.2122   -2.4806    0.0019 O   0  5  0  0  0  0  0  0  0  0  0  0
    1.1276   -1.1974    0.0003 C   0  0  0  0  0  0  0  0  0  0  0  0
    1.8185    0.0000    0.0003 C   0  0  0  0  0  0  0  0  0  0  0  0
    3.2987    0.0000   -0.0008 N   0  3  0  0  0  0  0  0  0  0  0  0
    3.9077   -1.0548   -0.0018 O   0  0  0  0  0  0  0  0  0  0  0  0
    3.9077    1.0548   -0.0008 O   0  5  0  0  0  0  0  0  0  0  0  0
    1.1276    1.1974    0.0009 C   0  0  0  0  0  0  0  0  0  0  0  0
   -0.2546    1.1980    0.0015 C   0  0  0  0  0  0  0  0  0  0  0  0
   -0.9942    2.4801    0.0012 N   0  3  0  0  0  0  0  0  0  0  0  0
   -0.3849    3.5348    0.0004 O   0  0  0  0  0  0  0  0  0  0  0  0
   -2.2122    2.4806    0.0017 O   0  5  0  0  0  0  0  0  0  0  0  0
   -2.6826   -0.0000   -0.0039 Cl  0  0  0  0  0  0  0  0  0  0  0  0
    1.6679   -2.1325   -0.0002 H   0  0  0  0  0  0  0  0  0  0  0  0
    1.6679    2.1325    0.0010 H   0  0  0  0  0  0  0  0  0  0  0  0
  1  2  1  0  0  0  0
  2  3  1  0  0  0  0
  3  4  2  0  0  0  0
  3  5  1  0  0  0  0
  2  6  2  0  0  0  0
  6  7  1  0  0  0  0
  7  8  1  0  0  0  0
  8  9  2  0  0  0  0
  8 10  1  0  0  0  0
  7 11  2  0  0  0  0
 11 12  1  0  0  0  0
  1 12  2  0  0  0  0
 12 13  1  0  0  0  0
 13 14  2  0  0  0  0
 13 15  1  0  0  0  0
  1 16  1  0  0  0  0
  6 17  1  0  0  0  0
 11 18  1  0  0  0  0
M  CHG  6   3   1   5  -1   8   1  10  -1  13   1  15  -1
M  END
$$$$
