C11H18N2O3
APtclcactv12111704483D 0   0.00000     0.00000
 
 34 34  0  0  1  0  0  0  0  0999 V2000
    0.5108   -0.3407   -0.5480 C   0  0  1  0  0  0  0  0  0  0  0  0
    2.0078   -0.4088   -0.2396 C   0  0  2  0  0  0  0  0  0  0  0  0
   -2.4677   -1.5263    0.2589 C   0  0  0  0  0  0  0  0  0  0  0  0
   -3.8404    0.1277    0.0687 C   0  0  0  0  0  0  0  0  0  0  0  0
   -0.2793   -0.3173    0.7621 C   0  0  0  0  0  0  0  0  0  0  0  0
    2.3089   -1.6862    0.5469 C   0  0  0  0  0  0  0  0  0  0  0  0
    0.2119    0.9296   -1.3466 C   0  0  0  0  0  0  0  0  0  0  0  0
   -2.2966    2.0680    0.4807 C   0  0  0  0  0  0  0  0  0  0  0  0
    2.0330   -2.9053   -0.3355 C   0  0  0  0  0  0  0  0  0  0  0  0
    0.8068    1.6782   -3.1318 H   0  0  0  0  0  0  0  0  0  0  0  0
   -1.7535   -0.4027    0.4612 C   0  0  0  0  0  0  0  0  0  0  0  0
    1.5672    1.5787    0.9467 O   0  0  0  0  0  0  0  0  0  0  0  0
    0.8889    0.8723   -2.6037 O   0  0  0  0  0  0  0  0  0  0  0  0
    3.6955    0.9856    0.9018 O   0  0  0  0  0  0  0  0  0  0  0  0
    2.4070    0.7913    0.5798 C   0  0  0  0  0  0  0  0  0  0  0  0
    3.9030    1.7695    1.4287 H   0  0  0  0  0  0  0  0  0  0  0  0
   -3.7394   -1.1725    0.0212 N   0  0  0  0  0  0  0  0  0  0  0  0
   -2.6238    0.6469    0.3407 N   0  0  0  0  0  0  0  0  0  0  0  0
   -2.0829   -2.5353    0.2796 H   0  0  0  0  0  0  0  0  0  0  0  0
   -4.7469    0.6947   -0.0843 H   0  0  0  0  0  0  0  0  0  0  0  0
   -2.0129    2.4729   -0.4908 H   0  0  0  0  0  0  0  0  0  0  0  0
   -3.1663    2.6056    0.8584 H   0  0  0  0  0  0  0  0  0  0  0  0
   -1.4672    2.1828    1.1785 H   0  0  0  0  0  0  0  0  0  0  0  0
    0.0154   -1.1660    1.3793 H   0  0  0  0  0  0  0  0  0  0  0  0
   -0.0705    0.6099    1.2957 H   0  0  0  0  0  0  0  0  0  0  0  0
    0.2200   -1.2139   -1.1320 H   0  0  0  0  0  0  0  0  0  0  0  0
    2.5711   -0.4154   -1.1727 H   0  0  0  0  0  0  0  0  0  0  0  0
    3.3556   -1.6874    0.8511 H   0  0  0  0  0  0  0  0  0  0  0  0
    1.6733   -1.7266    1.4314 H   0  0  0  0  0  0  0  0  0  0  0  0
    2.1755   -3.8154    0.2472 H   0  0  0  0  0  0  0  0  0  0  0  0
    1.0068   -2.8648   -0.7007 H   0  0  0  0  0  0  0  0  0  0  0  0
    2.7201   -2.9044   -1.1817 H   0  0  0  0  0  0  0  0  0  0  0  0
   -0.8621    1.0083   -1.5156 H   0  0  0  0  0  0  0  0  0  0  0  0
    0.5564    1.7997   -0.7877 H   0  0  0  0  0  0  0  0  0  0  0  0
  3 17  1  0  0  0  0
  4 17  2  0  0  0  0
  3 11  2  0  0  0  0
 11 18  1  0  0  0  0
  5 11  1  0  0  0  0
  4 18  1  0  0  0  0
  8 18  1  0  0  0  0
  1  5  1  0  0  0  0
  1  2  1  0  0  0  0
  1  7  1  0  0  0  0
  2  6  1  0  0  0  0
  2 15  1  0  0  0  0
  6  9  1  0  0  0  0
 12 15  2  0  0  0  0
 14 15  1  0  0  0  0
  7 13  1  0  0  0  0
  3 19  1  0  0  0  0
  4 20  1  0  0  0  0
  8 21  1  0  0  0  0
  8 22  1  0  0  0  0
  8 23  1  0  0  0  0
  5 24  1  0  0  0  0
  5 25  1  0  0  0  0
  1 26  1  0  0  0  0
  2 27  1  0  0  0  0
  6 28  1  0  0  0  0
  6 29  1  0  0  0  0
  9 30  1  0  0  0  0
  9 31  1  0  0  0  0
  9 32  1  0  0  0  0
  7 33  1  0  0  0  0
  7 34  1  0  0  0  0
 10 13  1  0  0  0  0
 14 16  1  0  0  0  0
M  END
$$$$
