C17H19NO3
APtclcactv12211717373D 0   0.00000     0.00000
 
 40 42  0  0  0  0  0  0  0  0999 V2000
   -3.8123   -1.1034   -0.2713 C   0  0  0  0  0  0  0  0  0  0  0  0
   -3.9444    1.6313    0.2300 C   0  0  0  0  0  0  0  0  0  0  0  0
   -2.7180    1.0055    0.2003 C   0  0  0  0  0  0  0  0  0  0  0  0
   -2.6404   -0.3697   -0.0513 C   0  0  0  0  0  0  0  0  0  0  0  0
    3.5069   -2.1151    0.1576 O   0  0  0  0  0  0  0  0  0  0  0  0
   -7.1736    0.0667    0.1318 C   0  0  0  0  0  0  0  0  0  0  0  0
    5.8930   -0.8219    0.2427 C   0  0  0  0  0  0  0  0  0  0  0  0
    4.5215    1.2639    0.6450 C   0  0  0  0  0  0  0  0  0  0  0  0
    6.6934   -0.0721   -0.8268 C   0  0  0  0  0  0  0  0  0  0  0  0
    5.3373    1.9903   -0.4290 C   0  0  0  0  0  0  0  0  0  0  0  0
    6.7545    1.4135   -0.4646 C   0  0  0  0  0  0  0  0  0  0  0  0
    3.4466   -0.9050    0.2800 C   0  0  0  0  0  0  0  0  0  0  0  0
   -5.0378   -0.4682   -0.2391 C   0  0  0  0  0  0  0  0  0  0  0  0
   -5.1070    0.9032    0.0122 C   0  0  0  0  0  0  0  0  0  0  0  0
   -1.3340   -1.0403   -0.0840 C   0  0  0  0  0  0  0  0  0  0  0  0
   -0.2021   -0.3286    0.1291 C   0  0  0  0  0  0  0  0  0  0  0  0
    1.0524   -0.9726    0.0977 C   0  0  0  0  0  0  0  0  0  0  0  0
    2.1876   -0.2587    0.3114 C   0  0  0  0  0  0  0  0  0  0  0  0
   -6.3057   -0.9426   -0.4168 O   0  0  0  0  0  0  0  0  0  0  0  0
   -6.4170    1.2833   -0.0093 O   0  0  0  0  0  0  0  0  0  0  0  0
    4.5785   -0.1811    0.3855 N   0  0  0  0  0  0  0  0  0  0  0  0
   -3.7575   -2.1635   -0.4702 H   0  0  0  0  0  0  0  0  0  0  0  0
   -4.0025    2.6920    0.4247 H   0  0  0  0  0  0  0  0  0  0  0  0
   -8.1013    0.1246   -0.4375 H   0  0  0  0  0  0  0  0  0  0  0  0
   -7.3802   -0.1360    1.1827 H   0  0  0  0  0  0  0  0  0  0  0  0
   -1.8164    1.5754    0.3698 H   0  0  0  0  0  0  0  0  0  0  0  0
   -1.2763   -2.1012   -0.2779 H   0  0  0  0  0  0  0  0  0  0  0  0
   -0.2598    0.7323    0.3230 H   0  0  0  0  0  0  0  0  0  0  0  0
    1.1101   -2.0335   -0.0962 H   0  0  0  0  0  0  0  0  0  0  0  0
    2.1299    0.8022    0.5053 H   0  0  0  0  0  0  0  0  0  0  0  0
    5.7621   -1.8608   -0.0602 H   0  0  0  0  0  0  0  0  0  0  0  0
    6.4249   -0.7805    1.1932 H   0  0  0  0  0  0  0  0  0  0  0  0
    4.9416    1.4754    1.6283 H   0  0  0  0  0  0  0  0  0  0  0  0
    3.4857    1.6013    0.6076 H   0  0  0  0  0  0  0  0  0  0  0  0
    7.7044   -0.4767   -0.8749 H   0  0  0  0  0  0  0  0  0  0  0  0
    6.2071   -0.1908   -1.7951 H   0  0  0  0  0  0  0  0  0  0  0  0
    4.8638    1.8522   -1.4011 H   0  0  0  0  0  0  0  0  0  0  0  0
    5.3832    3.0537   -0.1940 H   0  0  0  0  0  0  0  0  0  0  0  0
    7.2185    1.5297    0.5148 H   0  0  0  0  0  0  0  0  0  0  0  0
    7.3444    1.9454   -1.2111 H   0  0  0  0  0  0  0  0  0  0  0  0
 13 14  2  0  0  0  0
  1 13  1  0  0  0  0
 13 19  1  0  0  0  0
  2 14  1  0  0  0  0
 14 20  1  0  0  0  0
  1  4  2  0  0  0  0
  6 19  1  0  0  0  0
  2  3  2  0  0  0  0
  4 15  1  0  0  0  0
 15 16  2  0  0  0  0
 16 17  1  0  0  0  0
 17 18  2  0  0  0  0
 12 18  1  0  0  0  0
 12 21  1  0  0  0  0
  5 12  2  0  0  0  0
  7 21  1  0  0  0  0
  8 21  1  0  0  0  0
  7  9  1  0  0  0  0
  8 10  1  0  0  0  0
  9 11  1  0  0  0  0
  6 20  1  0  0  0  0
  3  4  1  0  0  0  0
 10 11  1  0  0  0  0
  1 22  1  0  0  0  0
  2 23  1  0  0  0  0
  6 24  1  0  0  0  0
  6 25  1  0  0  0  0
  3 26  1  0  0  0  0
 15 27  1  0  0  0  0
 16 28  1  0  0  0  0
 17 29  1  0  0  0  0
 18 30  1  0  0  0  0
  7 31  1  0  0  0  0
  7 32  1  0  0  0  0
  8 33  1  0  0  0  0
  8 34  1  0  0  0  0
  9 35  1  0  0  0  0
  9 36  1  0  0  0  0
 10 37  1  0  0  0  0
 10 38  1  0  0  0  0
 11 39  1  0  0  0  0
 11 40  1  0  0  0  0
M  END
$$$$
