C14H17N5O3
APtclcactv12211717023D 0   0.00000     0.00000
 
 39 41  0  0  0  0  0  0  0  0999 V2000
    0.0774    1.9482    0.2257 C   0  0  0  0  0  0  0  0  0  0  0  0
   -0.8242   -2.8076   -0.1739 C   0  0  0  0  0  0  0  0  0  0  0  0
   -0.7464   -3.3886    1.2394 C   0  0  0  0  0  0  0  0  0  0  0  0
    5.7538    0.7116   -1.4177 H   0  0  0  0  0  0  0  0  0  0  0  0
    1.7431    0.3522    0.2248 C   0  0  0  0  0  0  0  0  0  0  0  0
   -2.7420    2.3366    0.0624 O   0  0  0  0  0  0  0  0  0  0  0  0
   -5.3848   -0.7461   -0.3345 O   0  0  0  0  0  0  0  0  0  0  0  0
    3.8847    1.2935    0.4371 C   0  0  0  0  0  0  0  0  0  0  0  0
    3.5271   -0.7092   -0.8744 C   0  0  0  0  0  0  0  0  0  0  0  0
    5.3627    0.9278    0.5925 C   0  0  0  0  0  0  0  0  0  0  0  0
    5.0051   -1.0749   -0.7190 C   0  0  0  0  0  0  0  0  0  0  0  0
   -5.1844    1.4594   -0.1635 O   0  0  0  0  0  0  0  0  0  0  0  0
   -4.6566    0.2201   -0.2166 C   0  0  0  0  0  0  0  0  0  0  0  0
   -2.3058    1.1999    0.0112 C   0  0  0  0  0  0  0  0  0  0  0  0
   -3.2007    0.0371   -0.1319 C   0  0  0  0  0  0  0  0  0  0  0  0
   -6.1470    1.5296   -0.2231 H   0  0  0  0  0  0  0  0  0  0  0  0
   -0.4205   -0.4102    0.0237 C   0  0  0  0  0  0  0  0  0  0  0  0
   -0.8635    0.9263    0.0890 C   0  0  0  0  0  0  0  0  0  0  0  0
   -2.6483   -1.2251   -0.1846 C   0  0  0  0  0  0  0  0  0  0  0  0
    0.8849   -0.6478    0.0957 N   0  0  0  0  0  0  0  0  0  0  0  0
    1.3564    1.6217    0.2891 N   0  0  0  0  0  0  0  0  0  0  0  0
   -1.3243   -1.4321   -0.1096 N   0  0  0  0  0  0  0  0  0  0  0  0
    3.0909    0.0648    0.2962 N   0  0  0  0  0  0  0  0  0  0  0  0
    5.7989    0.1538   -0.5782 N   0  0  0  0  0  0  0  0  0  0  0  0
   -0.2322    2.9817    0.2740 H   0  0  0  0  0  0  0  0  0  0  0  0
   -3.3039   -2.0769   -0.2888 H   0  0  0  0  0  0  0  0  0  0  0  0
    0.1685   -2.8127   -0.6239 H   0  0  0  0  0  0  0  0  0  0  0  0
   -1.5003   -3.4122   -0.7785 H   0  0  0  0  0  0  0  0  0  0  0  0
   -0.3743   -4.4120    1.1916 H   0  0  0  0  0  0  0  0  0  0  0  0
   -0.0703   -2.7840    1.8440 H   0  0  0  0  0  0  0  0  0  0  0  0
   -1.7392   -3.3836    1.6895 H   0  0  0  0  0  0  0  0  0  0  0  0
    3.5515    1.8427    1.3176 H   0  0  0  0  0  0  0  0  0  0  0  0
    3.7549    1.9140   -0.4496 H   0  0  0  0  0  0  0  0  0  0  0  0
    3.3932   -0.1115   -1.7760 H   0  0  0  0  0  0  0  0  0  0  0  0
    2.9331   -1.6200   -0.9500 H   0  0  0  0  0  0  0  0  0  0  0  0
    5.9567    1.8386    0.6681 H   0  0  0  0  0  0  0  0  0  0  0  0
    5.4966    0.3301    1.4941 H   0  0  0  0  0  0  0  0  0  0  0  0
    5.1349   -1.6954    0.1677 H   0  0  0  0  0  0  0  0  0  0  0  0
    5.3383   -1.6242   -1.5996 H   0  0  0  0  0  0  0  0  0  0  0  0
 17 18  2  0  0  0  0
 17 22  1  0  0  0  0
 17 20  1  0  0  0  0
 14 18  1  0  0  0  0
  1 18  1  0  0  0  0
 19 22  1  0  0  0  0
  2 22  1  0  0  0  0
  5 20  2  0  0  0  0
 14 15  1  0  0  0  0
  6 14  2  0  0  0  0
  1 21  2  0  0  0  0
  2  3  1  0  0  0  0
  5 23  1  0  0  0  0
 13 15  1  0  0  0  0
  8 23  1  0  0  0  0
  9 23  1  0  0  0  0
 12 13  1  0  0  0  0
  7 13  2  0  0  0  0
  8 10  1  0  0  0  0
  9 11  1  0  0  0  0
 10 24  1  0  0  0  0
 15 19  2  0  0  0  0
  5 21  1  0  0  0  0
 11 24  1  0  0  0  0
  1 25  1  0  0  0  0
 19 26  1  0  0  0  0
  2 27  1  0  0  0  0
  2 28  1  0  0  0  0
  3 29  1  0  0  0  0
  3 30  1  0  0  0  0
  3 31  1  0  0  0  0
  8 32  1  0  0  0  0
  8 33  1  0  0  0  0
  9 34  1  0  0  0  0
  9 35  1  0  0  0  0
 12 16  1  0  0  0  0
 10 36  1  0  0  0  0
 10 37  1  0  0  0  0
 11 38  1  0  0  0  0
 11 39  1  0  0  0  0
  4 24  1  0  0  0  0
M  END
$$$$
