C6H4ClIO2S
APtclcactv12211716493D 0   0.00000     0.00000
 
 15 15  0  0  0  0  0  0  0  0999 V2000
   -1.0751    0.9334   -0.2670 C   0  0  0  0  0  0  0  0  0  0  0  0
   -0.8978   -1.4172    0.1538 C   0  0  0  0  0  0  0  0  0  0  0  0
    0.3026    1.0420   -0.2423 C   0  0  0  0  0  0  0  0  0  0  0  0
    0.4800   -1.3093    0.1781 C   0  0  0  0  0  0  0  0  0  0  0  0
   -1.6753   -0.2961   -0.0692 C   0  0  0  0  0  0  0  0  0  0  0  0
    1.0807   -0.0794   -0.0197 C   0  0  0  0  0  0  0  0  0  0  0  0
   -3.7888   -0.7024   -1.4497 O   0  0  0  0  0  0  0  0  0  0  0  0
   -3.7867   -1.2844    0.9810 O   0  0  0  0  0  0  0  0  0  0  0  0
   -4.1827    1.3892    0.3365 Cl  0  0  0  0  0  0  0  0  0  0  0  0
   -3.4316   -0.4342   -0.1008 S   0  0  0  0  0  0  0  0  0  0  0  0
    3.1689    0.0847    0.0171 I   0  0  0  0  0  0  0  0  0  0  0  0
   -1.6829    1.8099   -0.4364 H   0  0  0  0  0  0  0  0  0  0  0  0
   -1.3670   -2.3776    0.3086 H   0  0  0  0  0  0  0  0  0  0  0  0
    0.7715    2.0026   -0.3972 H   0  0  0  0  0  0  0  0  0  0  0  0
    1.0873   -2.1852    0.3523 H   0  0  0  0  0  0  0  0  0  0  0  0
  5 10  1  0  0  0  0
  7 10  2  0  0  0  0
  8 10  2  0  0  0  0
  9 10  1  0  0  0  0
  1  5  2  0  0  0  0
  2  5  1  0  0  0  0
  1  3  1  0  0  0  0
  2  4  2  0  0  0  0
  3  6  2  0  0  0  0
  6 11  1  0  0  0  0
  4  6  1  0  0  0  0
  1 12  1  0  0  0  0
  2 13  1  0  0  0  0
  3 14  1  0  0  0  0
  4 15  1  0  0  0  0
M  END
$$$$
