C13H24N3O3PS
APtclcactv12091702543D 0   0.00000     0.00000
 
 45 45  0  0  0  0  0  0  0  0999 V2000
    0.6145    1.6941   -1.1789 C   0  0  0  0  0  0  0  0  0  0  0  0
    3.1433   -2.2983    0.3443 C   0  0  0  0  0  0  0  0  0  0  0  0
    4.7480   -0.3552    0.6415 C   0  0  0  0  0  0  0  0  0  0  0  0
   -3.2061    1.6490    1.2066 C   0  0  0  0  0  0  0  0  0  0  0  0
   -4.1402   -1.6333    0.2586 C   0  0  0  0  0  0  0  0  0  0  0  0
    2.1917    3.6215   -0.8889 C   0  0  0  0  0  0  0  0  0  0  0  0
    3.5327   -2.9972   -0.9598 C   0  0  0  0  0  0  0  0  0  0  0  0
    4.7135    0.0235    2.1234 C   0  0  0  0  0  0  0  0  0  0  0  0
   -3.5656    3.1352    1.1526 C   0  0  0  0  0  0  0  0  0  0  0  0
   -5.1684   -2.4974   -0.4742 C   0  0  0  0  0  0  0  0  0  0  0  0
    0.3476    0.3296   -1.0726 C   0  0  0  0  0  0  0  0  0  0  0  0
    2.4731    0.0023   -0.2452 C   0  0  0  0  0  0  0  0  0  0  0  0
    1.8587    2.1549   -0.7921 C   0  0  0  0  0  0  0  0  0  0  0  0
   -0.8589   -0.1652   -1.4409 O   0  0  0  0  0  0  0  0  0  0  0  0
   -2.4821    1.2910    0.0277 O   0  0  0  0  0  0  0  0  0  0  0  0
   -3.1754   -1.1455   -0.6760 O   0  0  0  0  0  0  0  0  0  0  0  0
    1.2921   -0.4777   -0.6059 N   0  0  0  0  0  0  0  0  0  0  0  0
    2.7550    1.2934   -0.3350 N   0  0  0  0  0  0  0  0  0  0  0  0
    3.4360   -0.8668    0.2375 N   0  0  0  0  0  0  0  0  0  0  0  0
   -1.9432   -0.2003   -0.2513 P   0  0  0  0  0  0  0  0  0  0  0  0
   -1.1483   -0.8728    1.2942 S   0  0  0  0  0  0  0  0  0  0  0  0
   -0.1327    2.3749   -1.5591 H   0  0  0  0  0  0  0  0  0  0  0  0
    1.9222    4.1176    0.0434 H   0  0  0  0  0  0  0  0  0  0  0  0
    3.2604    3.7403   -1.0680 H   0  0  0  0  0  0  0  0  0  0  0  0
    1.6336    4.0673   -1.7123 H   0  0  0  0  0  0  0  0  0  0  0  0
    2.0781   -2.4386    0.5278 H   0  0  0  0  0  0  0  0  0  0  0  0
    3.7134   -2.7251    1.1695 H   0  0  0  0  0  0  0  0  0  0  0  0
    4.9936    0.5249    0.0472 H   0  0  0  0  0  0  0  0  0  0  0  0
    5.5033   -1.1245    0.4805 H   0  0  0  0  0  0  0  0  0  0  0  0
   -2.5895    1.4560    2.0844 H   0  0  0  0  0  0  0  0  0  0  0  0
   -4.1190    1.0564    1.2664 H   0  0  0  0  0  0  0  0  0  0  0  0
   -4.6448   -0.7915    0.7327 H   0  0  0  0  0  0  0  0  0  0  0  0
   -3.6388   -2.2317    1.0193 H   0  0  0  0  0  0  0  0  0  0  0  0
    3.3149   -4.0622   -0.8803 H   0  0  0  0  0  0  0  0  0  0  0  0
    2.9626   -2.5704   -1.7850 H   0  0  0  0  0  0  0  0  0  0  0  0
    4.5980   -2.8569   -1.1432 H   0  0  0  0  0  0  0  0  0  0  0  0
    5.6897    0.4041    2.4240 H   0  0  0  0  0  0  0  0  0  0  0  0
    3.9583    0.7928    2.2844 H   0  0  0  0  0  0  0  0  0  0  0  0
    4.4680   -0.8567    2.7177 H   0  0  0  0  0  0  0  0  0  0  0  0
   -2.6528    3.7279    1.0929 H   0  0  0  0  0  0  0  0  0  0  0  0
   -4.1823    3.3282    0.2748 H   0  0  0  0  0  0  0  0  0  0  0  0
   -4.1179    3.4083    2.0518 H   0  0  0  0  0  0  0  0  0  0  0  0
   -5.6697   -1.8991   -1.2349 H   0  0  0  0  0  0  0  0  0  0  0  0
   -4.6638   -3.3393   -0.9483 H   0  0  0  0  0  0  0  0  0  0  0  0
   -5.9043   -2.8695    0.2386 H   0  0  0  0  0  0  0  0  0  0  0  0
 11 17  2  0  0  0  0
 11 14  1  0  0  0  0
  1 11  1  0  0  0  0
 12 17  1  0  0  0  0
 14 20  1  0  0  0  0
  1 13  2  0  0  0  0
 12 19  1  0  0  0  0
 12 18  2  0  0  0  0
 15 20  1  0  0  0  0
 16 20  1  0  0  0  0
 20 21  2  0  0  0  0
  6 13  1  0  0  0  0
  2 19  1  0  0  0  0
  3 19  1  0  0  0  0
  4 15  1  0  0  0  0
  5 16  1  0  0  0  0
  2  7  1  0  0  0  0
  3  8  1  0  0  0  0
  4  9  1  0  0  0  0
  5 10  1  0  0  0  0
 13 18  1  0  0  0  0
  1 22  1  0  0  0  0
  6 23  1  0  0  0  0
  6 24  1  0  0  0  0
  6 25  1  0  0  0  0
  2 26  1  0  0  0  0
  2 27  1  0  0  0  0
  3 28  1  0  0  0  0
  3 29  1  0  0  0  0
  4 30  1  0  0  0  0
  4 31  1  0  0  0  0
  5 32  1  0  0  0  0
  5 33  1  0  0  0  0
  7 34  1  0  0  0  0
  7 35  1  0  0  0  0
  7 36  1  0  0  0  0
  8 37  1  0  0  0  0
  8 38  1  0  0  0  0
  8 39  1  0  0  0  0
  9 40  1  0  0  0  0
  9 41  1  0  0  0  0
  9 42  1  0  0  0  0
 10 43  1  0  0  0  0
 10 44  1  0  0  0  0
 10 45  1  0  0  0  0
M  END
$$$$
