C11H20N3O3PS
APtclcactv12111704483D 0   0.00000     0.00000
 
 39 39  0  0  0  0  0  0  0  0999 V2000
   -0.2217   -1.9869    0.3820 C   0  0  0  0  0  0  0  0  0  0  0  0
   -2.7793    2.2674    0.4987 C   0  0  0  0  0  0  0  0  0  0  0  0
   -4.3514    0.5886   -0.5731 C   0  0  0  0  0  0  0  0  0  0  0  0
   -1.7670   -3.6543   -0.6756 C   0  0  0  0  0  0  0  0  0  0  0  0
    2.5682    2.2606   -1.2733 C   0  0  0  0  0  0  0  0  0  0  0  0
    4.9955    0.1924    0.2682 C   0  0  0  0  0  0  0  0  0  0  0  0
   -2.1667    3.0873   -0.6385 C   0  0  0  0  0  0  0  0  0  0  0  0
   -5.3202    0.1309    0.5191 C   0  0  0  0  0  0  0  0  0  0  0  0
   -1.4524   -2.2658   -0.1813 C   0  0  0  0  0  0  0  0  0  0  0  0
    0.0279   -0.6892    0.8268 C   0  0  0  0  0  0  0  0  0  0  0  0
   -2.0873   -0.0753    0.1497 C   0  0  0  0  0  0  0  0  0  0  0  0
    1.2212   -0.3718    1.3850 O   0  0  0  0  0  0  0  0  0  0  0  0
    1.9786    1.6396   -0.1293 O   0  0  0  0  0  0  0  0  0  0  0  0
    3.7803    0.1044    1.0149 O   0  0  0  0  0  0  0  0  0  0  0  0
   -2.3527   -1.2993   -0.2817 N   0  0  0  0  0  0  0  0  0  0  0  0
   -0.9196    0.2310    0.6953 N   0  0  0  0  0  0  0  0  0  0  0  0
   -3.0538    0.9077    0.0275 N   0  0  0  0  0  0  0  0  0  0  0  0
    2.3246    0.1351    0.3277 P   0  0  0  0  0  0  0  0  0  0  0  0
    2.3174   -0.9840   -1.1623 S   0  0  0  0  0  0  0  0  0  0  0  0
    0.5283   -2.7579    0.4796 H   0  0  0  0  0  0  0  0  0  0  0  0
   -2.2113   -4.2355    0.1324 H   0  0  0  0  0  0  0  0  0  0  0  0
   -2.4684   -3.5935   -1.5077 H   0  0  0  0  0  0  0  0  0  0  0  0
   -0.8488   -4.1380   -1.0088 H   0  0  0  0  0  0  0  0  0  0  0  0
    2.1794    3.2735   -1.3778 H   0  0  0  0  0  0  0  0  0  0  0  0
    3.6505    2.2978   -1.1491 H   0  0  0  0  0  0  0  0  0  0  0  0
    2.3246    1.6840   -2.1657 H   0  0  0  0  0  0  0  0  0  0  0  0
    5.0515   -0.6396   -0.4338 H   0  0  0  0  0  0  0  0  0  0  0  0
    5.0169    1.1335   -0.2813 H   0  0  0  0  0  0  0  0  0  0  0  0
    5.8448    0.1503    0.9501 H   0  0  0  0  0  0  0  0  0  0  0  0
   -1.2366    2.6205   -0.9629 H   0  0  0  0  0  0  0  0  0  0  0  0
   -2.8645    3.1266   -1.4750 H   0  0  0  0  0  0  0  0  0  0  0  0
   -1.9624    4.0990   -0.2880 H   0  0  0  0  0  0  0  0  0  0  0  0
   -2.0815    2.2281    1.3351 H   0  0  0  0  0  0  0  0  0  0  0  0
   -3.7093    2.7342    0.8231 H   0  0  0  0  0  0  0  0  0  0  0  0
   -4.2264   -0.2090   -1.3054 H   0  0  0  0  0  0  0  0  0  0  0  0
   -4.7515    1.4747   -1.0657 H   0  0  0  0  0  0  0  0  0  0  0  0
   -6.2856   -0.1065    0.0723 H   0  0  0  0  0  0  0  0  0  0  0  0
   -4.9200   -0.7553    1.0117 H   0  0  0  0  0  0  0  0  0  0  0  0
   -5.4451    0.9285    1.2515 H   0  0  0  0  0  0  0  0  0  0  0  0
  1  9  2  0  0  0  0
  9 15  1  0  0  0  0
  4  9  1  0  0  0  0
  1 10  1  0  0  0  0
 11 15  2  0  0  0  0
 10 16  2  0  0  0  0
 10 12  1  0  0  0  0
 11 16  1  0  0  0  0
 12 18  1  0  0  0  0
 11 17  1  0  0  0  0
  2 17  1  0  0  0  0
  3 17  1  0  0  0  0
 18 19  2  0  0  0  0
 13 18  1  0  0  0  0
 14 18  1  0  0  0  0
  5 13  1  0  0  0  0
  6 14  1  0  0  0  0
  2  7  1  0  0  0  0
  3  8  1  0  0  0  0
  1 20  1  0  0  0  0
  4 21  1  0  0  0  0
  4 22  1  0  0  0  0
  4 23  1  0  0  0  0
  5 24  1  0  0  0  0
  5 25  1  0  0  0  0
  5 26  1  0  0  0  0
  6 27  1  0  0  0  0
  6 28  1  0  0  0  0
  6 29  1  0  0  0  0
  7 30  1  0  0  0  0
  7 31  1  0  0  0  0
  7 32  1  0  0  0  0
  2 33  1  0  0  0  0
  2 34  1  0  0  0  0
  3 35  1  0  0  0  0
  3 36  1  0  0  0  0
  8 37  1  0  0  0  0
  8 38  1  0  0  0  0
  8 39  1  0  0  0  0
M  END
$$$$
