C17H27NO3
APtclcactv12211717153D 0   0.00000     0.00000
 
 48 49  0  0  0  0  0  0  0  0999 V2000
   -2.9883    2.1962   -0.0568 C   0  0  0  0  0  0  0  0  0  0  0  0
   -1.6133    2.3143   -0.1155 C   0  0  0  0  0  0  0  0  0  0  0  0
   -1.4076   -0.0792   -0.1109 C   0  0  0  0  0  0  0  0  0  0  0  0
   -2.7827   -0.1973   -0.0527 C   0  0  0  0  0  0  0  0  0  0  0  0
   -7.5680   -1.8473    0.1589 C   0  0  0  0  0  0  0  0  0  0  0  0
   -6.9932   -0.4298    0.1271 C   0  0  0  0  0  0  0  0  0  0  0  0
   -5.4662   -0.4999    0.0625 C   0  0  0  0  0  0  0  0  0  0  0  0
    1.2882    0.0798   -0.2268 C   0  0  0  0  0  0  0  0  0  0  0  0
    2.7809    0.4091   -0.2927 C   0  0  0  0  0  0  0  0  0  0  0  0
    3.5890   -0.8898   -0.3198 C   0  0  0  0  0  0  0  0  0  0  0  0
   -9.0950   -1.7772    0.2235 C   0  0  0  0  0  0  0  0  0  0  0  0
   -3.5758    0.9402   -0.0253 C   0  0  0  0  0  0  0  0  0  0  0  0
   -0.8201    1.1767   -0.1429 C   0  0  0  0  0  0  0  0  0  0  0  0
    5.8374   -1.7788   -0.1724 C   0  0  0  0  0  0  0  0  0  0  0  0
    7.3188   -1.4160   -0.3055 C   0  0  0  0  0  0  0  0  0  0  0  0
    6.8609    0.8107    0.4493 C   0  0  0  0  0  0  0  0  0  0  0  0
    5.3748    0.4704    0.5901 C   0  0  0  0  0  0  0  0  0  0  0  0
   -4.9294    0.8241    0.0329 O   0  0  0  0  0  0  0  0  0  0  0  0
    0.5335    1.2929   -0.2016 O   0  0  0  0  0  0  0  0  0  0  0  0
    7.6358   -0.3783    0.6262 O   0  0  0  0  0  0  0  0  0  0  0  0
    5.0222   -0.5736   -0.3830 N   0  0  0  0  0  0  0  0  0  0  0  0
    5.5778   -2.5289   -0.9195 H   0  0  0  0  0  0  0  0  0  0  0  0
    5.6482   -2.1765    0.8246 H   0  0  0  0  0  0  0  0  0  0  0  0
    7.9290   -2.2940   -0.0938 H   0  0  0  0  0  0  0  0  0  0  0  0
    7.5188   -1.0687   -1.3191 H   0  0  0  0  0  0  0  0  0  0  0  0
    7.0476    1.2227   -0.5423 H   0  0  0  0  0  0  0  0  0  0  0  0
    7.1399    1.5430    1.2069 H   0  0  0  0  0  0  0  0  0  0  0  0
    5.1782    0.1086    1.5993 H   0  0  0  0  0  0  0  0  0  0  0  0
    4.7776    1.3621    0.3996 H   0  0  0  0  0  0  0  0  0  0  0  0
   -3.6056    3.0820   -0.0310 H   0  0  0  0  0  0  0  0  0  0  0  0
   -1.1558    3.2923   -0.1404 H   0  0  0  0  0  0  0  0  0  0  0  0
   -0.7901   -0.9650   -0.1322 H   0  0  0  0  0  0  0  0  0  0  0  0
   -3.2402   -1.1753   -0.0282 H   0  0  0  0  0  0  0  0  0  0  0  0
   -7.2666   -2.3819   -0.7419 H   0  0  0  0  0  0  0  0  0  0  0  0
   -7.1910   -2.3727    1.0364 H   0  0  0  0  0  0  0  0  0  0  0  0
   -7.3703    0.0956   -0.7504 H   0  0  0  0  0  0  0  0  0  0  0  0
   -7.2946    0.1048    1.0280 H   0  0  0  0  0  0  0  0  0  0  0  0
   -5.0892   -1.0253    0.9400 H   0  0  0  0  0  0  0  0  0  0  0  0
   -5.1648   -1.0345   -0.8383 H   0  0  0  0  0  0  0  0  0  0  0  0
    1.0063   -0.5054   -1.1022 H   0  0  0  0  0  0  0  0  0  0  0  0
    1.0825   -0.4951    0.6761 H   0  0  0  0  0  0  0  0  0  0  0  0
    2.9867    0.9839   -1.1957 H   0  0  0  0  0  0  0  0  0  0  0  0
    3.0629    0.9942    0.5826 H   0  0  0  0  0  0  0  0  0  0  0  0
    3.3833   -1.4646    0.5832 H   0  0  0  0  0  0  0  0  0  0  0  0
    3.3071   -1.4750   -1.1951 H   0  0  0  0  0  0  0  0  0  0  0  0
   -9.3964   -1.2427    1.1244 H   0  0  0  0  0  0  0  0  0  0  0  0
   -9.4721   -1.2519   -0.6540 H   0  0  0  0  0  0  0  0  0  0  0  0
   -9.5045   -2.7871    0.2462 H   0  0  0  0  0  0  0  0  0  0  0  0
 14 21  1  0  0  0  0
 17 21  1  0  0  0  0
 10 21  1  0  0  0  0
 14 15  1  0  0  0  0
 15 20  1  0  0  0  0
 16 20  1  0  0  0  0
 16 17  1  0  0  0  0
  1 12  2  0  0  0  0
  4 12  1  0  0  0  0
 12 18  1  0  0  0  0
  1  2  1  0  0  0  0
  2 13  2  0  0  0  0
  3 13  1  0  0  0  0
 13 19  1  0  0  0  0
  3  4  2  0  0  0  0
  5  6  1  0  0  0  0
  5 11  1  0  0  0  0
  6  7  1  0  0  0  0
  7 18  1  0  0  0  0
  8 19  1  0  0  0  0
  8  9  1  0  0  0  0
  9 10  1  0  0  0  0
 14 22  1  0  0  0  0
 14 23  1  0  0  0  0
 15 24  1  0  0  0  0
 15 25  1  0  0  0  0
 16 26  1  0  0  0  0
 16 27  1  0  0  0  0
 17 28  1  0  0  0  0
 17 29  1  0  0  0  0
  1 30  1  0  0  0  0
  2 31  1  0  0  0  0
  3 32  1  0  0  0  0
  4 33  1  0  0  0  0
  5 34  1  0  0  0  0
  5 35  1  0  0  0  0
  6 36  1  0  0  0  0
  6 37  1  0  0  0  0
  7 38  1  0  0  0  0
  7 39  1  0  0  0  0
  8 40  1  0  0  0  0
  8 41  1  0  0  0  0
  9 42  1  0  0  0  0
  9 43  1  0  0  0  0
 10 44  1  0  0  0  0
 10 45  1  0  0  0  0
 11 46  1  0  0  0  0
 11 47  1  0  0  0  0
 11 48  1  0  0  0  0
M  END
$$$$
