C13H20N2O
APtclcactv12091702533D 0   0.00000     0.00000
 
 36 36  0  0  0  0  0  0  0  0999 V2000
    2.3207    1.2208   -0.4876 C   0  0  0  0  0  0  0  0  0  0  0  0
    4.3691   -0.2574    0.6471 C   0  0  0  0  0  0  0  0  0  0  0  0
    3.5529    1.8037   -0.2643 C   0  0  0  0  0  0  0  0  0  0  0  0
    4.5760    1.0658    0.3018 C   0  0  0  0  0  0  0  0  0  0  0  0
   -3.9151   -0.2663    0.2669 C   0  0  0  0  0  0  0  0  0  0  0  0
   -4.9926    0.8044    0.4501 C   0  0  0  0  0  0  0  0  0  0  0  0
    2.9153   -2.2880    0.8022 C   0  0  0  0  0  0  0  0  0  0  0  0
   -1.7308   -1.2508   -1.7711 C   0  0  0  0  0  0  0  0  0  0  0  0
   -6.2899    0.1466    0.9246 C   0  0  0  0  0  0  0  0  0  0  0  0
    0.8088   -1.6362   -0.6182 H   0  0  0  0  0  0  0  0  0  0  0  0
   -2.3757    1.0881    0.4511 H   0  0  0  0  0  0  0  0  0  0  0  0
    2.1099   -0.1075   -0.1424 C   0  0  0  0  0  0  0  0  0  0  0  0
    3.1396   -0.8459    0.4265 C   0  0  0  0  0  0  0  0  0  0  0  0
   -0.1937    1.2153    0.0002 O   0  0  0  0  0  0  0  0  0  0  0  0
   -0.2636    0.0272   -0.2338 C   0  0  0  0  0  0  0  0  0  0  0  0
   -1.6100   -0.6348   -0.3758 C   0  0  0  0  0  0  0  0  0  0  0  0
    0.8627   -0.7009   -0.3669 N   0  0  0  0  0  0  0  0  0  0  0  0
   -2.6696    0.3653   -0.1887 N   0  0  0  0  0  0  0  0  0  0  0  0
    1.5207    1.7989   -0.9260 H   0  0  0  0  0  0  0  0  0  0  0  0
    5.1703   -0.8311    1.0891 H   0  0  0  0  0  0  0  0  0  0  0  0
    3.1693   -2.9275   -0.0433 H   0  0  0  0  0  0  0  0  0  0  0  0
    3.5460   -2.5440    1.6536 H   0  0  0  0  0  0  0  0  0  0  0  0
    1.8686   -2.4357    1.0679 H   0  0  0  0  0  0  0  0  0  0  0  0
    3.7175    2.8368   -0.5325 H   0  0  0  0  0  0  0  0  0  0  0  0
   -1.7115   -1.4168    0.3767 H   0  0  0  0  0  0  0  0  0  0  0  0
    5.5386    1.5237    0.4750 H   0  0  0  0  0  0  0  0  0  0  0  0
   -1.6292   -0.4688   -2.5235 H   0  0  0  0  0  0  0  0  0  0  0  0
   -0.9445   -1.9929   -1.9099 H   0  0  0  0  0  0  0  0  0  0  0  0
   -2.7046   -1.7296   -1.8738 H   0  0  0  0  0  0  0  0  0  0  0  0
   -3.7400   -0.7718    1.2166 H   0  0  0  0  0  0  0  0  0  0  0  0
   -4.2469   -0.9923   -0.4753 H   0  0  0  0  0  0  0  0  0  0  0  0
   -4.6608    1.5304    1.1924 H   0  0  0  0  0  0  0  0  0  0  0  0
   -5.1677    1.3099   -0.4996 H   0  0  0  0  0  0  0  0  0  0  0  0
   -6.6217   -0.5795    0.1824 H   0  0  0  0  0  0  0  0  0  0  0  0
   -6.1147   -0.3589    1.8743 H   0  0  0  0  0  0  0  0  0  0  0  0
   -7.0575    0.9094    1.0552 H   0  0  0  0  0  0  0  0  0  0  0  0
 12 17  1  0  0  0  0
 12 13  1  0  0  0  0
  1 12  2  0  0  0  0
 15 17  1  0  0  0  0
  2 13  2  0  0  0  0
  7 13  1  0  0  0  0
  1  3  1  0  0  0  0
 15 16  1  0  0  0  0
 14 15  2  0  0  0  0
  2  4  1  0  0  0  0
 16 18  1  0  0  0  0
  8 16  1  0  0  0  0
  5 18  1  0  0  0  0
  5  6  1  0  0  0  0
  6  9  1  0  0  0  0
  3  4  2  0  0  0  0
 10 17  1  0  0  0  0
  1 19  1  0  0  0  0
  2 20  1  0  0  0  0
  7 21  1  0  0  0  0
  7 22  1  0  0  0  0
  7 23  1  0  0  0  0
  3 24  1  0  0  0  0
 16 25  1  0  0  0  0
  4 26  1  0  0  0  0
 11 18  1  0  0  0  0
  8 27  1  0  0  0  0
  8 28  1  0  0  0  0
  8 29  1  0  0  0  0
  5 30  1  0  0  0  0
  5 31  1  0  0  0  0
  6 32  1  0  0  0  0
  6 33  1  0  0  0  0
  9 34  1  0  0  0  0
  9 35  1  0  0  0  0
  9 36  1  0  0  0  0
M  END
$$$$
