C9H14N2O3
APtclcactv12151716493D 0   0.00000     0.00000
 
 28 28  0  0  0  0  0  0  0  0999 V2000
   -1.2686    0.9393   -1.3152 C   0  0  0  0  0  0  0  0  0  0  0  0
   -2.9066   -0.5706    0.3787 C   0  0  0  0  0  0  0  0  0  0  0  0
   -1.1344   -0.7109    2.1343 C   0  0  0  0  0  0  0  0  0  0  0  0
   -0.2421    1.0503   -2.4443 C   0  0  0  0  0  0  0  0  0  0  0  0
    1.5369   -2.2122   -0.5801 H   0  0  0  0  0  0  0  0  0  0  0  0
    2.3954    1.4134    0.8510 H   0  0  0  0  0  0  0  0  0  0  0  0
   -0.8790   -1.9199   -0.9139 O   0  0  0  0  0  0  0  0  0  0  0  0
    0.1411    2.3865    0.7807 O   0  0  0  0  0  0  0  0  0  0  0  0
    3.2175   -0.7393    0.2459 O   0  0  0  0  0  0  0  0  0  0  0  0
   -0.1185   -1.0791   -0.4845 C   0  0  0  0  0  0  0  0  0  0  0  0
    0.4356    1.2610    0.4394 C   0  0  0  0  0  0  0  0  0  0  0  0
    2.0492   -0.4222    0.1433 C   0  0  0  0  0  0  0  0  0  0  0  0
   -1.6890    0.1312    0.9836 C   0  0  0  0  0  0  0  0  0  0  0  0
   -0.6121    0.3001   -0.0900 C   0  0  0  0  0  0  0  0  0  0  0  0
    1.1980   -1.3371   -0.3345 N   0  0  0  0  0  0  0  0  0  0  0  0
    1.7080    0.8167    0.5159 N   0  0  0  0  0  0  0  0  0  0  0  0
   -1.9840    1.1109    1.3597 H   0  0  0  0  0  0  0  0  0  0  0  0
   -1.6320    1.9336   -1.0555 H   0  0  0  0  0  0  0  0  0  0  0  0
   -2.1044    0.3213   -1.6435 H   0  0  0  0  0  0  0  0  0  0  0  0
   -2.6116   -1.5503    0.0027 H   0  0  0  0  0  0  0  0  0  0  0  0
   -3.6738   -0.6909    1.1436 H   0  0  0  0  0  0  0  0  0  0  0  0
   -3.3017    0.0293   -0.4410 H   0  0  0  0  0  0  0  0  0  0  0  0
   -0.2105   -0.2629    2.5001 H   0  0  0  0  0  0  0  0  0  0  0  0
   -1.8650   -0.7480    2.9424 H   0  0  0  0  0  0  0  0  0  0  0  0
   -0.9326   -1.7219    1.7803 H   0  0  0  0  0  0  0  0  0  0  0  0
    0.5937    1.6682   -2.1160 H   0  0  0  0  0  0  0  0  0  0  0  0
    0.1213    0.0560   -2.7040 H   0  0  0  0  0  0  0  0  0  0  0  0
   -0.7098    1.5056   -3.3172 H   0  0  0  0  0  0  0  0  0  0  0  0
 10 14  1  0  0  0  0
 11 14  1  0  0  0  0
 13 14  1  0  0  0  0
  1 14  1  0  0  0  0
 10 15  1  0  0  0  0
  7 10  2  0  0  0  0
 11 16  1  0  0  0  0
  8 11  2  0  0  0  0
  2 13  1  0  0  0  0
  3 13  1  0  0  0  0
  1  4  1  0  0  0  0
 12 15  1  0  0  0  0
  9 12  2  0  0  0  0
 12 16  1  0  0  0  0
 13 17  1  0  0  0  0
  1 18  1  0  0  0  0
  1 19  1  0  0  0  0
  5 15  1  0  0  0  0
  6 16  1  0  0  0  0
  2 20  1  0  0  0  0
  2 21  1  0  0  0  0
  2 22  1  0  0  0  0
  3 23  1  0  0  0  0
  3 24  1  0  0  0  0
  3 25  1  0  0  0  0
  4 26  1  0  0  0  0
  4 27  1  0  0  0  0
  4 28  1  0  0  0  0
M  END
$$$$
