C10H19N5O
APtclcactv12211717293D 0   0.00000     0.00000
 
 35 35  0  0  0  0  0  0  0  0999 V2000
    1.3642    3.3371   -0.0326 C   0  0  0  0  0  0  0  0  0  0  0  0
    3.9548   -0.4008    1.2328 C   0  0  0  0  0  0  0  0  0  0  0  0
    4.5021   -1.6621   -0.8533 C   0  0  0  0  0  0  0  0  0  0  0  0
   -4.1550    0.0541   -1.2252 C   0  0  0  0  0  0  0  0  0  0  0  0
   -4.8317   -1.1718    0.8441 C   0  0  0  0  0  0  0  0  0  0  0  0
    2.1306   -2.3661   -0.1307 H   0  0  0  0  0  0  0  0  0  0  0  0
   -2.5506   -2.1157    0.1042 H   0  0  0  0  0  0  0  0  0  0  0  0
    1.0268   -0.6453   -0.0626 C   0  0  0  0  0  0  0  0  0  0  0  0
   -1.2684   -0.5226    0.0577 C   0  0  0  0  0  0  0  0  0  0  0  0
   -0.0134    1.4062    0.0159 C   0  0  0  0  0  0  0  0  0  0  0  0
    0.0595    2.7572    0.0280 O   0  0  0  0  0  0  0  0  0  0  0  0
    3.4864   -0.7330   -0.1853 C   0  0  0  0  0  0  0  0  0  0  0  0
   -3.7230   -0.3474    0.1866 C   0  0  0  0  0  0  0  0  0  0  0  0
   -0.1566   -1.2480   -0.0086 N   0  0  0  0  0  0  0  0  0  0  0  0
   -1.1958    0.8052    0.0700 N   0  0  0  0  0  0  0  0  0  0  0  0
    1.0975    0.6825   -0.0503 N   0  0  0  0  0  0  0  0  0  0  0  0
    2.1822   -1.3975   -0.1258 N   0  0  0  0  0  0  0  0  0  0  0  0
   -2.4978   -1.1472    0.1135 N   0  0  0  0  0  0  0  0  0  0  0  0
    3.3996    0.1865   -0.7641 H   0  0  0  0  0  0  0  0  0  0  0  0
   -3.5371    0.5489    0.7783 H   0  0  0  0  0  0  0  0  0  0  0  0
    1.9497    3.0046    0.8245 H   0  0  0  0  0  0  0  0  0  0  0  0
    1.8579    3.0254   -0.9530 H   0  0  0  0  0  0  0  0  0  0  0  0
    1.2799    4.4237   -0.0155 H   0  0  0  0  0  0  0  0  0  0  0  0
    4.9252    0.0936    1.1885 H   0  0  0  0  0  0  0  0  0  0  0  0
    3.2312    0.2611    1.7087 H   0  0  0  0  0  0  0  0  0  0  0  0
    4.0416   -1.3203    1.8116 H   0  0  0  0  0  0  0  0  0  0  0  0
    4.1684   -1.8988   -1.8636 H   0  0  0  0  0  0  0  0  0  0  0  0
    5.4725   -1.1677   -0.8976 H   0  0  0  0  0  0  0  0  0  0  0  0
    4.5889   -2.5817   -0.2745 H   0  0  0  0  0  0  0  0  0  0  0  0
   -3.3652    0.6414   -1.6936 H   0  0  0  0  0  0  0  0  0  0  0  0
   -4.3409   -0.8422   -1.8170 H   0  0  0  0  0  0  0  0  0  0  0  0
   -5.0666    0.6491   -1.1708 H   0  0  0  0  0  0  0  0  0  0  0  0
   -4.5239   -1.4578    1.8498 H   0  0  0  0  0  0  0  0  0  0  0  0
   -5.7433   -0.5767    0.8984 H   0  0  0  0  0  0  0  0  0  0  0  0
   -5.0176   -2.0681    0.2523 H   0  0  0  0  0  0  0  0  0  0  0  0
 10 11  1  0  0  0  0
  1 11  1  0  0  0  0
  8 14  2  0  0  0  0
  9 14  1  0  0  0  0
  9 15  2  0  0  0  0
 10 15  1  0  0  0  0
  8 16  1  0  0  0  0
 10 16  2  0  0  0  0
  8 17  1  0  0  0  0
 12 17  1  0  0  0  0
  9 18  1  0  0  0  0
 13 18  1  0  0  0  0
  2 12  1  0  0  0  0
  3 12  1  0  0  0  0
  4 13  1  0  0  0  0
  5 13  1  0  0  0  0
  6 17  1  0  0  0  0
  7 18  1  0  0  0  0
 12 19  1  0  0  0  0
 13 20  1  0  0  0  0
  1 21  1  0  0  0  0
  1 22  1  0  0  0  0
  1 23  1  0  0  0  0
  2 24  1  0  0  0  0
  2 25  1  0  0  0  0
  2 26  1  0  0  0  0
  3 27  1  0  0  0  0
  3 28  1  0  0  0  0
  3 29  1  0  0  0  0
  4 30  1  0  0  0  0
  4 31  1  0  0  0  0
  4 32  1  0  0  0  0
  5 33  1  0  0  0  0
  5 34  1  0  0  0  0
  5 35  1  0  0  0  0
M  END
$$$$
