C10H19N5S
APtclcactv12211717293D 0   0.00000     0.00000
 
 35 35  0  0  0  0  0  0  0  0999 V2000
    1.9231    3.0949   -0.0610 C   0  0  0  0  0  0  0  0  0  0  0  0
    3.8967   -0.7482    1.2350 C   0  0  0  0  0  0  0  0  0  0  0  0
    4.4093   -2.0266   -0.8495 C   0  0  0  0  0  0  0  0  0  0  0  0
   -4.1983   -0.0725   -1.2282 C   0  0  0  0  0  0  0  0  0  0  0  0
   -4.9085   -1.2772    0.8423 C   0  0  0  0  0  0  0  0  0  0  0  0
    2.0185   -2.6625   -0.1277 H   0  0  0  0  0  0  0  0  0  0  0  0
   -2.6533   -2.2829    0.1046 H   0  0  0  0  0  0  0  0  0  0  0  0
    0.9637   -0.9110   -0.0620 C   0  0  0  0  0  0  0  0  0  0  0  0
   -1.3287   -0.7248    0.0568 C   0  0  0  0  0  0  0  0  0  0  0  0
   -0.0202    1.1697    0.0140 C   0  0  0  0  0  0  0  0  0  0  0  0
    3.4200   -1.0685   -0.1831 C   0  0  0  0  0  0  0  0  0  0  0  0
   -3.7779   -0.4837    0.1843 C   0  0  0  0  0  0  0  0  0  0  0  0
   -0.2366   -1.4803   -0.0082 N   0  0  0  0  0  0  0  0  0  0  0  0
   -1.2208    0.5999    0.0679 N   0  0  0  0  0  0  0  0  0  0  0  0
    1.0722    0.4137   -0.0510 N   0  0  0  0  0  0  0  0  0  0  0  0
    2.0974   -1.6957   -0.1237 N   0  0  0  0  0  0  0  0  0  0  0  0
   -2.5745   -1.3161    0.1127 N   0  0  0  0  0  0  0  0  0  0  0  0
    0.1232    2.9258    0.0281 S   0  0  0  0  0  0  0  0  0  0  0  0
    3.3596   -0.1474   -0.7628 H   0  0  0  0  0  0  0  0  0  0  0  0
   -3.5682    0.4080    0.7750 H   0  0  0  0  0  0  0  0  0  0  0  0
    2.3771    2.6065    0.8013 H   0  0  0  0  0  0  0  0  0  0  0  0
    2.2870    2.6282   -0.9763 H   0  0  0  0  0  0  0  0  0  0  0  0
    2.1891    4.1520   -0.0616 H   0  0  0  0  0  0  0  0  0  0  0  0
    4.8808   -0.2815    1.1909 H   0  0  0  0  0  0  0  0  0  0  0  0
    3.1919   -0.0656    1.7098 H   0  0  0  0  0  0  0  0  0  0  0  0
    3.9571   -1.6693    1.8148 H   0  0  0  0  0  0  0  0  0  0  0  0
    4.0697   -2.2548   -1.8598 H   0  0  0  0  0  0  0  0  0  0  0  0
    5.3934   -1.5599   -0.8937 H   0  0  0  0  0  0  0  0  0  0  0  0
    4.4697   -2.9477   -0.2698 H   0  0  0  0  0  0  0  0  0  0  0  0
   -3.3928    0.4928   -1.6970 H   0  0  0  0  0  0  0  0  0  0  0  0
   -4.4080   -0.9643   -1.8190 H   0  0  0  0  0  0  0  0  0  0  0  0
   -5.0937    0.5468   -1.1750 H   0  0  0  0  0  0  0  0  0  0  0  0
   -4.6090   -1.5701    1.8485 H   0  0  0  0  0  0  0  0  0  0  0  0
   -5.8039   -0.6578    0.8955 H   0  0  0  0  0  0  0  0  0  0  0  0
   -5.1181   -2.1689    0.2515 H   0  0  0  0  0  0  0  0  0  0  0  0
 10 18  1  0  0  0  0
  1 18  1  0  0  0  0
  8 13  2  0  0  0  0
  9 13  1  0  0  0  0
  9 14  2  0  0  0  0
 10 14  1  0  0  0  0
  8 15  1  0  0  0  0
 10 15  2  0  0  0  0
  8 16  1  0  0  0  0
 11 16  1  0  0  0  0
  9 17  1  0  0  0  0
 12 17  1  0  0  0  0
  2 11  1  0  0  0  0
  3 11  1  0  0  0  0
  4 12  1  0  0  0  0
  5 12  1  0  0  0  0
  6 16  1  0  0  0  0
  7 17  1  0  0  0  0
 11 19  1  0  0  0  0
 12 20  1  0  0  0  0
  1 21  1  0  0  0  0
  1 22  1  0  0  0  0
  1 23  1  0  0  0  0
  2 24  1  0  0  0  0
  2 25  1  0  0  0  0
  2 26  1  0  0  0  0
  3 27  1  0  0  0  0
  3 28  1  0  0  0  0
  3 29  1  0  0  0  0
  4 30  1  0  0  0  0
  4 31  1  0  0  0  0
  4 32  1  0  0  0  0
  5 33  1  0  0  0  0
  5 34  1  0  0  0  0
  5 35  1  0  0  0  0
M  END
$$$$
