C8H14O5
APtclcactv12151716343D 0   0.00000     0.00000
 
 27 26  0  0  0  0  0  0  0  0999 V2000
   -3.2992   -0.0754   -0.2380 C   0  0  0  0  0  0  0  0  0  0  0  0
   -4.4509    0.7782    0.2967 C   0  0  0  0  0  0  0  0  0  0  0  0
   -5.7710    0.2835   -0.2977 C   0  0  0  0  0  0  0  0  0  0  0  0
   -2.0463    0.3941    0.3261 O   0  0  0  0  0  0  0  0  0  0  0  0
   -0.9280   -0.2547   -0.0456 C   0  0  0  0  0  0  0  0  0  0  0  0
   -0.9962   -1.1877   -0.8200 O   0  0  0  0  0  0  0  0  0  0  0  0
    0.2660    0.1300    0.4405 O   0  0  0  0  0  0  0  0  0  0  0  0
    1.4299   -0.6156   -0.0040 C   0  0  0  0  0  0  0  0  0  0  0  0
    2.6338    0.2908   -0.0129 C   0  0  0  0  0  0  0  0  0  0  0  0
    2.5426    1.4204    0.4061 O   0  0  0  0  0  0  0  0  0  0  0  0
    3.8074   -0.1567   -0.4864 O   0  0  0  0  0  0  0  0  0  0  0  0
    4.9241    0.7711   -0.4643 C   0  0  0  0  0  0  0  0  0  0  0  0
    1.6801   -1.7863    0.9489 C   0  0  0  0  0  0  0  0  0  0  0  0
   -3.4571   -1.1163    0.0440 H   0  0  0  0  0  0  0  0  0  0  0  0
   -3.2613    0.0050   -1.3244 H   0  0  0  0  0  0  0  0  0  0  0  0
   -4.4888    0.6978    1.3831 H   0  0  0  0  0  0  0  0  0  0  0  0
   -4.2929    1.8192    0.0147 H   0  0  0  0  0  0  0  0  0  0  0  0
   -5.9290   -0.7575   -0.0157 H   0  0  0  0  0  0  0  0  0  0  0  0
   -6.5915    0.8916    0.0833 H   0  0  0  0  0  0  0  0  0  0  0  0
   -5.7332    0.3639   -1.3840 H   0  0  0  0  0  0  0  0  0  0  0  0
    1.2548   -0.9970   -1.0099 H   0  0  0  0  0  0  0  0  0  0  0  0
    5.1207    1.0786    0.5628 H   0  0  0  0  0  0  0  0  0  0  0  0
    5.8092    0.2841   -0.8735 H   0  0  0  0  0  0  0  0  0  0  0  0
    4.6806    1.6470   -1.0656 H   0  0  0  0  0  0  0  0  0  0  0  0
    2.5538   -2.3460    0.6152 H   0  0  0  0  0  0  0  0  0  0  0  0
    1.8552   -1.4050    1.9548 H   0  0  0  0  0  0  0  0  0  0  0  0
    0.8093   -2.4419    0.9553 H   0  0  0  0  0  0  0  0  0  0  0  0
  1  2  1  0  0  0  0
  2  3  1  0  0  0  0
  1  4  1  0  0  0  0
  4  5  1  0  0  0  0
  5  6  2  0  0  0  0
  5  7  1  0  0  0  0
  7  8  1  0  0  0  0
  8  9  1  0  0  0  0
  9 10  2  0  0  0  0
  9 11  1  0  0  0  0
 11 12  1  0  0  0  0
  8 13  1  0  0  0  0
  1 14  1  0  0  0  0
  1 15  1  0  0  0  0
  2 16  1  0  0  0  0
  2 17  1  0  0  0  0
  3 18  1  0  0  0  0
  3 19  1  0  0  0  0
  3 20  1  0  0  0  0
  8 21  1  0  0  0  0
 12 22  1  0  0  0  0
 12 23  1  0  0  0  0
 12 24  1  0  0  0  0
 13 25  1  0  0  0  0
 13 26  1  0  0  0  0
 13 27  1  0  0  0  0
M  END
$$$$
