C5H10O2
APtclcactv12211716453D 0   0.00000     0.00000
 
 17 16  0  0  0  0  0  0  0  0999 V2000
   -1.5311    0.0677   -0.0014 C   0  0  0  0  0  0  0  0  0  0  0  0
   -2.8105   -0.7286   -0.0000 C   0  0  0  0  0  0  0  0  0  0  0  0
   -1.5710    1.2753    0.0010 O   0  0  0  0  0  0  0  0  0  0  0  0
   -0.3470   -0.5646    0.0003 O   0  0  0  0  0  0  0  0  0  0  0  0
    0.8439    0.2661   -0.0011 C   0  0  0  0  0  0  0  0  0  0  0  0
    2.0874   -0.6253    0.0012 C   0  0  0  0  0  0  0  0  0  0  0  0
    3.3423    0.2500   -0.0004 C   0  0  0  0  0  0  0  0  0  0  0  0
   -3.1213   -0.9186   -1.0274 H   0  0  0  0  0  0  0  0  0  0  0  0
   -2.6476   -1.6771    0.5116 H   0  0  0  0  0  0  0  0  0  0  0  0
   -3.5881   -0.1659    0.5166 H   0  0  0  0  0  0  0  0  0  0  0  0
    0.8482    0.8935   -0.8924 H   0  0  0  0  0  0  0  0  0  0  0  0
    0.8477    0.8973    0.8875 H   0  0  0  0  0  0  0  0  0  0  0  0
    2.0831   -1.2527    0.8925 H   0  0  0  0  0  0  0  0  0  0  0  0
    2.0836   -1.2565   -0.8875 H   0  0  0  0  0  0  0  0  0  0  0  0
    3.3466    0.8774   -0.8917 H   0  0  0  0  0  0  0  0  0  0  0  0
    3.3461    0.8812    0.8883 H   0  0  0  0  0  0  0  0  0  0  0  0
    4.2282   -0.3850    0.0013 H   0  0  0  0  0  0  0  0  0  0  0  0
  1  2  1  0  0  0  0
  1  3  2  0  0  0  0
  1  4  1  0  0  0  0
  4  5  1  0  0  0  0
  5  6  1  0  0  0  0
  6  7  1  0  0  0  0
  2  8  1  0  0  0  0
  2  9  1  0  0  0  0
  2 10  1  0  0  0  0
  5 11  1  0  0  0  0
  5 12  1  0  0  0  0
  6 13  1  0  0  0  0
  6 14  1  0  0  0  0
  7 15  1  0  0  0  0
  7 16  1  0  0  0  0
  7 17  1  0  0  0  0
M  END
$$$$
