C16H21NO2
APtclcactv12211717133D 0   0.00000     0.00000
 
 40 41  0  0  0  0  0  0  0  0999 V2000
    2.8932    1.6129   -0.2671 C   0  0  0  0  0  0  0  0  0  0  0  0
    1.6018   -1.8083    0.2282 C   0  0  0  0  0  0  0  0  0  0  0  0
    3.9955   -1.9121    0.1428 C   0  0  0  0  0  0  0  0  0  0  0  0
    5.2744    0.1528   -0.1779 C   0  0  0  0  0  0  0  0  0  0  0  0
    4.0993    2.2306   -0.3977 C   0  0  0  0  0  0  0  0  0  0  0  0
    2.7905   -2.5321    0.2727 C   0  0  0  0  0  0  0  0  0  0  0  0
    5.2866    1.5024   -0.3534 C   0  0  0  0  0  0  0  0  0  0  0  0
   -0.7625   -0.5139    0.1613 C   0  0  0  0  0  0  0  0  0  0  0  0
   -3.2575   -0.3883    0.1228 C   0  0  0  0  0  0  0  0  0  0  0  0
   -6.8084    0.6831    0.3833 C   0  0  0  0  0  0  0  0  0  0  0  0
   -5.9583   -0.8050   -1.4348 C   0  0  0  0  0  0  0  0  0  0  0  0
   -1.9728    0.8785    2.0647 H   0  0  0  0  0  0  0  0  0  0  0  0
   -4.3187    1.0338   -0.9213 H   0  0  0  0  0  0  0  0  0  0  0  0
    1.6110   -0.4532    0.0541 C   0  0  0  0  0  0  0  0  0  0  0  0
   -1.9371    1.3216    1.2060 O   0  0  0  0  0  0  0  0  0  0  0  0
    0.4431    0.2389    0.0137 O   0  0  0  0  0  0  0  0  0  0  0  0
   -1.9648    0.4296    0.0900 C   0  0  0  0  0  0  0  0  0  0  0  0
   -5.6691   -0.2462   -0.0401 C   0  0  0  0  0  0  0  0  0  0  0  0
   -4.4076    0.5060   -0.0659 N   0  0  0  0  0  0  0  0  0  0  0  0
    2.8411    0.2217   -0.0845 C   0  0  0  0  0  0  0  0  0  0  0  0
    4.0478   -0.5192   -0.0389 C   0  0  0  0  0  0  0  0  0  0  0  0
    1.9812    2.1905   -0.2993 H   0  0  0  0  0  0  0  0  0  0  0  0
    0.6595   -2.3252    0.3343 H   0  0  0  0  0  0  0  0  0  0  0  0
    4.9082   -2.4883    0.1796 H   0  0  0  0  0  0  0  0  0  0  0  0
    6.2023   -0.3989   -0.1455 H   0  0  0  0  0  0  0  0  0  0  0  0
    4.1365    3.3008   -0.5380 H   0  0  0  0  0  0  0  0  0  0  0  0
   -0.8310   -1.2509   -0.6389 H   0  0  0  0  0  0  0  0  0  0  0  0
   -0.7571   -1.0234    1.1250 H   0  0  0  0  0  0  0  0  0  0  0  0
    2.7559   -3.6025    0.4117 H   0  0  0  0  0  0  0  0  0  0  0  0
    6.2304    2.0165   -0.4596 H   0  0  0  0  0  0  0  0  0  0  0  0
   -1.9216    1.0039   -0.8354 H   0  0  0  0  0  0  0  0  0  0  0  0
   -3.2388   -1.1296   -0.6761 H   0  0  0  0  0  0  0  0  0  0  0  0
   -3.3438   -0.8931    1.0850 H   0  0  0  0  0  0  0  0  0  0  0  0
   -5.5875   -1.0683    0.6709 H   0  0  0  0  0  0  0  0  0  0  0  0
   -6.8901    1.5051   -0.3277 H   0  0  0  0  0  0  0  0  0  0  0  0
   -7.7445    0.1249    0.4025 H   0  0  0  0  0  0  0  0  0  0  0  0
   -6.6024    1.0811    1.3769 H   0  0  0  0  0  0  0  0  0  0  0  0
   -5.1467   -1.4671   -1.7364 H   0  0  0  0  0  0  0  0  0  0  0  0
   -6.8944   -1.3632   -1.4156 H   0  0  0  0  0  0  0  0  0  0  0  0
   -6.0400    0.0171   -2.1458 H   0  0  0  0  0  0  0  0  0  0  0  0
 14 20  1  0  0  0  0
 20 21  2  0  0  0  0
  1 20  1  0  0  0  0
 14 16  1  0  0  0  0
  2 14  2  0  0  0  0
  3 21  1  0  0  0  0
  4 21  1  0  0  0  0
  1  5  2  0  0  0  0
  8 16  1  0  0  0  0
  2  6  1  0  0  0  0
  4  7  2  0  0  0  0
  8 17  1  0  0  0  0
  9 17  1  0  0  0  0
 15 17  1  0  0  0  0
  9 19  1  0  0  0  0
 18 19  1  0  0  0  0
 10 18  1  0  0  0  0
 11 18  1  0  0  0  0
  3  6  2  0  0  0  0
  5  7  1  0  0  0  0
  1 22  1  0  0  0  0
  2 23  1  0  0  0  0
  3 24  1  0  0  0  0
  4 25  1  0  0  0  0
  5 26  1  0  0  0  0
  8 27  1  0  0  0  0
  8 28  1  0  0  0  0
  6 29  1  0  0  0  0
  7 30  1  0  0  0  0
 17 31  1  0  0  0  0
  9 32  1  0  0  0  0
  9 33  1  0  0  0  0
 12 15  1  0  0  0  0
 13 19  1  0  0  0  0
 18 34  1  0  0  0  0
 10 35  1  0  0  0  0
 10 36  1  0  0  0  0
 10 37  1  0  0  0  0
 11 38  1  0  0  0  0
 11 39  1  0  0  0  0
 11 40  1  0  0  0  0
M  END
$$$$
