C4H9NO2
APtclcactv12211716403D 0   0.00000     0.00000
 
 16 15  0  0  0  0  0  0  0  0999 V2000
   -1.5286   -0.0459   -0.0013 C   0  0  0  0  0  0  0  0  0  0  0  0
   -2.6657    0.6776   -0.0001 N   0  0  0  0  0  0  0  0  0  0  0  0
   -0.3347    0.5765    0.0003 O   0  0  0  0  0  0  0  0  0  0  0  0
    0.8479   -0.2660   -0.0011 C   0  0  0  0  0  0  0  0  0  0  0  0
    2.1002    0.6130    0.0011 C   0  0  0  0  0  0  0  0  0  0  0  0
    3.3463   -0.2748   -0.0004 C   0  0  0  0  0  0  0  0  0  0  0  0
   -1.5809   -1.2598    0.0011 O   0  0  0  0  0  0  0  0  0  0  0  0
   -2.6240    1.6467    0.0019 H   0  0  0  0  0  0  0  0  0  0  0  0
   -3.5258    0.2292   -0.0013 H   0  0  0  0  0  0  0  0  0  0  0  0
    0.8454   -0.8972    0.8875 H   0  0  0  0  0  0  0  0  0  0  0  0
    0.8459   -0.8934   -0.8924 H   0  0  0  0  0  0  0  0  0  0  0  0
    2.1027    1.2442   -0.8875 H   0  0  0  0  0  0  0  0  0  0  0  0
    2.1022    1.2404    0.8925 H   0  0  0  0  0  0  0  0  0  0  0  0
    3.3439   -0.9060    0.8883 H   0  0  0  0  0  0  0  0  0  0  0  0
    3.3444   -0.9022   -0.8917 H   0  0  0  0  0  0  0  0  0  0  0  0
    4.2385    0.3514    0.0012 H   0  0  0  0  0  0  0  0  0  0  0  0
  1  2  1  0  0  0  0
  1  3  1  0  0  0  0
  3  4  1  0  0  0  0
  4  5  1  0  0  0  0
  5  6  1  0  0  0  0
  1  7  2  0  0  0  0
  2  8  1  0  0  0  0
  2  9  1  0  0  0  0
  4 10  1  0  0  0  0
  4 11  1  0  0  0  0
  5 12  1  0  0  0  0
  5 13  1  0  0  0  0
  6 14  1  0  0  0  0
  6 15  1  0  0  0  0
  6 16  1  0  0  0  0
M  END
$$$$
