C10H13NO2
APtclcactv12211717253D 0   0.00000     0.00000
 
 26 26  0  0  0  0  0  0  0  0999 V2000
   -4.0531    0.4994   -0.2044 C   0  0  0  0  0  0  0  0  0  0  0  0
   -3.7585   -0.8312   -0.4383 C   0  0  0  0  0  0  0  0  0  0  0  0
   -3.0670    1.3612    0.2396 C   0  0  0  0  0  0  0  0  0  0  0  0
   -2.4777   -1.3036   -0.2286 C   0  0  0  0  0  0  0  0  0  0  0  0
   -1.7842    0.8951    0.4508 C   0  0  0  0  0  0  0  0  0  0  0  0
    4.4376   -0.0829    0.8219 C   0  0  0  0  0  0  0  0  0  0  0  0
    3.5649    0.2022   -1.5018 C   0  0  0  0  0  0  0  0  0  0  0  0
   -0.0481   -1.8154    0.7669 H   0  0  0  0  0  0  0  0  0  0  0  0
   -1.4852   -0.4407    0.2172 C   0  0  0  0  0  0  0  0  0  0  0  0
    0.6993    1.0284   -0.1738 O   0  0  0  0  0  0  0  0  0  0  0  0
    0.8726   -0.1249    0.1675 C   0  0  0  0  0  0  0  0  0  0  0  0
    2.1224   -0.6122    0.2833 O   0  0  0  0  0  0  0  0  0  0  0  0
    3.2146    0.2968   -0.0154 C   0  0  0  0  0  0  0  0  0  0  0  0
   -0.1863   -0.9162    0.4302 N   0  0  0  0  0  0  0  0  0  0  0  0
    5.2575    0.5994    0.5976 H   0  0  0  0  0  0  0  0  0  0  0  0
    4.1881   -0.0155    1.8808 H   0  0  0  0  0  0  0  0  0  0  0  0
    4.7385   -1.1032    0.5837 H   0  0  0  0  0  0  0  0  0  0  0  0
    2.9138    1.3170    0.2228 H   0  0  0  0  0  0  0  0  0  0  0  0
    3.8657   -0.8181   -1.7400 H   0  0  0  0  0  0  0  0  0  0  0  0
    2.6936    0.4727   -2.0983 H   0  0  0  0  0  0  0  0  0  0  0  0
    4.3848    0.8845   -1.7260 H   0  0  0  0  0  0  0  0  0  0  0  0
   -5.0544    0.8674   -0.3731 H   0  0  0  0  0  0  0  0  0  0  0  0
   -4.5308   -1.5018   -0.7850 H   0  0  0  0  0  0  0  0  0  0  0  0
   -3.3002    2.4000    0.4211 H   0  0  0  0  0  0  0  0  0  0  0  0
   -2.2483   -2.3432   -0.4109 H   0  0  0  0  0  0  0  0  0  0  0  0
   -1.0146    1.5686    0.7979 H   0  0  0  0  0  0  0  0  0  0  0  0
  6 13  1  0  0  0  0
  7 13  1  0  0  0  0
 12 13  1  0  0  0  0
 11 12  1  0  0  0  0
 10 11  2  0  0  0  0
 11 14  1  0  0  0  0
  9 14  1  0  0  0  0
  4  9  2  0  0  0  0
  5  9  1  0  0  0  0
  1  2  2  0  0  0  0
  1  3  1  0  0  0  0
  2  4  1  0  0  0  0
  3  5  2  0  0  0  0
  6 15  1  0  0  0  0
  6 16  1  0  0  0  0
  6 17  1  0  0  0  0
 13 18  1  0  0  0  0
  7 19  1  0  0  0  0
  7 20  1  0  0  0  0
  7 21  1  0  0  0  0
  8 14  1  0  0  0  0
  1 22  1  0  0  0  0
  2 23  1  0  0  0  0
  3 24  1  0  0  0  0
  4 25  1  0  0  0  0
  5 26  1  0  0  0  0
M  END
$$$$
