C4H8O2
APtclcactv12211716403D 0   0.00000     0.00000
 
 14 13  0  0  0  0  0  0  0  0999 V2000
   -1.8006   -0.3910   -0.0003 C   0  0  0  0  0  0  0  0  0  0  0  0
   -2.8702    0.1711   -0.0000 O   0  0  0  0  0  0  0  0  0  0  0  0
   -0.6657    0.3258    0.0001 O   0  0  0  0  0  0  0  0  0  0  0  0
    0.5825   -0.4160   -0.0002 C   0  0  0  0  0  0  0  0  0  0  0  0
    1.7579    0.5635    0.0002 C   0  0  0  0  0  0  0  0  0  0  0  0
    3.0731   -0.2182   -0.0001 C   0  0  0  0  0  0  0  0  0  0  0  0
   -1.7577   -1.4701    0.0037 H   0  0  0  0  0  0  0  0  0  0  0  0
    0.6323   -1.0438    0.8895 H   0  0  0  0  0  0  0  0  0  0  0  0
    0.6323   -1.0429   -0.8905 H   0  0  0  0  0  0  0  0  0  0  0  0
    1.7081    1.1912   -0.8895 H   0  0  0  0  0  0  0  0  0  0  0  0
    1.7080    1.1904    0.8905 H   0  0  0  0  0  0  0  0  0  0  0  0
    3.1229   -0.8460    0.8896 H   0  0  0  0  0  0  0  0  0  0  0  0
    3.1230   -0.8451   -0.8904 H   0  0  0  0  0  0  0  0  0  0  0  0
    3.9105    0.4796    0.0003 H   0  0  0  0  0  0  0  0  0  0  0  0
  1  2  2  0  0  0  0
  1  3  1  0  0  0  0
  3  4  1  0  0  0  0
  4  5  1  0  0  0  0
  5  6  1  0  0  0  0
  1  7  1  0  0  0  0
  4  8  1  0  0  0  0
  4  9  1  0  0  0  0
  5 10  1  0  0  0  0
  5 11  1  0  0  0  0
  6 12  1  0  0  0  0
  6 13  1  0  0  0  0
  6 14  1  0  0  0  0
M  END
$$$$
