C4H7BrN2O2
APtclcactv12211716383D 0   0.00000     0.00000
 
 16 15  0  0  0  0  0  0  0  0999 V2000
    3.8212    0.9538   -0.6365 N   0  0  0  0  0  0  0  0  0  0  0  0
    2.8201    0.2690   -0.0489 C   0  0  0  0  0  0  0  0  0  0  0  0
    2.9976   -0.2601    1.0307 O   0  0  0  0  0  0  0  0  0  0  0  0
    1.6221    0.1708   -0.6587 N   0  0  0  0  0  0  0  0  0  0  0  0
    0.6210   -0.5141   -0.0711 C   0  0  0  0  0  0  0  0  0  0  0  0
   -0.7184   -0.6239   -0.7528 C   0  0  0  0  0  0  0  0  0  0  0  0
   -1.2150   -2.0688   -0.6719 C   0  0  0  0  0  0  0  0  0  0  0  0
   -2.0071    0.5629    0.1394 Br  0  0  0  0  0  0  0  0  0  0  0  0
    0.7981   -1.0418    1.0059 O   0  0  0  0  0  0  0  0  0  0  0  0
    4.6833    1.0245   -0.1977 H   0  0  0  0  0  0  0  0  0  0  0  0
    3.6807    1.3727   -1.5001 H   0  0  0  0  0  0  0  0  0  0  0  0
    1.4804    0.5930   -1.5204 H   0  0  0  0  0  0  0  0  0  0  0  0
   -0.6191   -0.3319   -1.7983 H   0  0  0  0  0  0  0  0  0  0  0  0
   -1.3144   -2.3608    0.3735 H   0  0  0  0  0  0  0  0  0  0  0  0
   -2.1838   -2.1482   -1.1650 H   0  0  0  0  0  0  0  0  0  0  0  0
   -0.5005   -2.7268   -1.1666 H   0  0  0  0  0  0  0  0  0  0  0  0
  1  2  1  0  0  0  0
  2  3  2  0  0  0  0
  2  4  1  0  0  0  0
  4  5  1  0  0  0  0
  5  6  1  0  0  0  0
  6  7  1  0  0  0  0
  6  8  1  0  0  0  0
  5  9  2  0  0  0  0
  1 10  1  0  0  0  0
  1 11  1  0  0  0  0
  4 12  1  0  0  0  0
  6 13  1  0  0  0  0
  7 14  1  0  0  0  0
  7 15  1  0  0  0  0
  7 16  1  0  0  0  0
M  END
$$$$
