C3H5N
APtclcactv12101715363D 0   0.00000     0.00000
 
  9  8  0  0  0  0  0  0  0  0999 V2000
   -0.7460   -0.1301   -0.0000 C   0  0  0  0  0  0  0  0  0  0  0  0
    0.6242   -0.6681   -0.0000 C   0  0  0  0  0  0  0  0  0  0  0  0
    1.6261    0.4882    0.0000 C   0  0  0  0  0  0  0  0  0  0  0  0
   -1.8034    0.2851    0.0000 N   0  0  0  0  0  0  0  0  0  0  0  0
    0.7746   -1.2792    0.8900 H   0  0  0  0  0  0  0  0  0  0  0  0
    0.7746   -1.2792   -0.8900 H   0  0  0  0  0  0  0  0  0  0  0  0
    2.6407    0.0898   -0.0000 H   0  0  0  0  0  0  0  0  0  0  0  0
    1.4757    1.0993   -0.8900 H   0  0  0  0  0  0  0  0  0  0  0  0
    1.4757    1.0993    0.8900 H   0  0  0  0  0  0  0  0  0  0  0  0
  1  2  1  0  0  0  0
  2  3  1  0  0  0  0
  1  4  3  0  0  0  0
  2  5  1  0  0  0  0
  2  6  1  0  0  0  0
  3  7  1  0  0  0  0
  3  8  1  0  0  0  0
  3  9  1  0  0  0  0
M  END
$$$$
