C10H12O3
APtclcactv12211717243D 0   0.00000     0.00000
 
 25 25  0  0  0  0  0  0  0  0999 V2000
   -3.0667    0.1985    0.0041 C   0  0  0  0  0  0  0  0  0  0  0  0
   -3.9963   -1.0167    0.0010 C   0  0  0  0  0  0  0  0  0  0  0  0
   -5.4519   -0.5454    0.0073 C   0  0  0  0  0  0  0  0  0  0  0  0
   -1.6853   -0.2488   -0.0018 O   0  0  0  0  0  0  0  0  0  0  0  0
   -0.7335    0.7050   -0.0000 C   0  0  0  0  0  0  0  0  0  0  0  0
   -1.0492    1.8783    0.0063 O   0  0  0  0  0  0  0  0  0  0  0  0
    0.6913    0.3248   -0.0058 C   0  0  0  0  0  0  0  0  0  0  0  0
    1.6804    1.3127   -0.0039 C   0  0  0  0  0  0  0  0  0  0  0  0
    3.0094    0.9534   -0.0093 C   0  0  0  0  0  0  0  0  0  0  0  0
    3.3684   -0.3896   -0.0166 C   0  0  0  0  0  0  0  0  0  0  0  0
    4.6795   -0.7394   -0.0220 O   0  0  0  0  0  0  0  0  0  0  0  0
    2.3880   -1.3751   -0.0180 C   0  0  0  0  0  0  0  0  0  0  0  0
    1.0567   -1.0245   -0.0073 C   0  0  0  0  0  0  0  0  0  0  0  0
   -3.2566    0.8034   -0.8826 H   0  0  0  0  0  0  0  0  0  0  0  0
   -3.2516    0.7951    0.8974 H   0  0  0  0  0  0  0  0  0  0  0  0
   -3.8114   -1.6133   -0.8923 H   0  0  0  0  0  0  0  0  0  0  0  0
   -3.8064   -1.6216    0.8877 H   0  0  0  0  0  0  0  0  0  0  0  0
   -5.6368    0.0512    0.9005 H   0  0  0  0  0  0  0  0  0  0  0  0
   -5.6417    0.0595   -0.8794 H   0  0  0  0  0  0  0  0  0  0  0  0
   -6.1141   -1.4112    0.0051 H   0  0  0  0  0  0  0  0  0  0  0  0
    1.4023    2.3563    0.0014 H   0  0  0  0  0  0  0  0  0  0  0  0
    3.7742    1.7160   -0.0083 H   0  0  0  0  0  0  0  0  0  0  0  0
    5.0620   -0.8450    0.8599 H   0  0  0  0  0  0  0  0  0  0  0  0
    2.6712   -2.4174   -0.0234 H   0  0  0  0  0  0  0  0  0  0  0  0
    0.2956   -1.7908   -0.0080 H   0  0  0  0  0  0  0  0  0  0  0  0
  1  2  1  0  0  0  0
  2  3  1  0  0  0  0
  1  4  1  0  0  0  0
  4  5  1  0  0  0  0
  5  6  2  0  0  0  0
  5  7  1  0  0  0  0
  7  8  2  0  0  0  0
  8  9  1  0  0  0  0
  9 10  2  0  0  0  0
 10 11  1  0  0  0  0
 10 12  1  0  0  0  0
 12 13  2  0  0  0  0
  7 13  1  0  0  0  0
  1 14  1  0  0  0  0
  1 15  1  0  0  0  0
  2 16  1  0  0  0  0
  2 17  1  0  0  0  0
  3 18  1  0  0  0  0
  3 19  1  0  0  0  0
  3 20  1  0  0  0  0
  8 21  1  0  0  0  0
  9 22  1  0  0  0  0
 11 23  1  0  0  0  0
 12 24  1  0  0  0  0
 13 25  1  0  0  0  0
M  END
$$$$
