C3H6
APtclcactv12101715363D 0   0.00000     0.00000
 
  9  8  0  0  0  0  0  0  0  0999 V2000
    1.2084   -0.2511   -0.0004 C   0  0  0  0  0  0  0  0  0  0  0  0
    0.1217    0.4804    0.0002 C   0  0  0  0  0  0  0  0  0  0  0  0
   -1.2322   -0.1815   -0.0001 C   0  0  0  0  0  0  0  0  0  0  0  0
    2.1787    0.2233   -0.0002 H   0  0  0  0  0  0  0  0  0  0  0  0
    1.1341   -1.3285    0.0033 H   0  0  0  0  0  0  0  0  0  0  0  0
    0.1960    1.5579    0.0010 H   0  0  0  0  0  0  0  0  0  0  0  0
   -1.3328   -0.8033    0.8894 H   0  0  0  0  0  0  0  0  0  0  0  0
   -2.0099    0.5822    0.0005 H   0  0  0  0  0  0  0  0  0  0  0  0
   -1.3330   -0.8020   -0.8905 H   0  0  0  0  0  0  0  0  0  0  0  0
  1  2  2  0  0  0  0
  2  3  1  0  0  0  0
  1  4  1  0  0  0  0
  1  5  1  0  0  0  0
  2  6  1  0  0  0  0
  3  7  1  0  0  0  0
  3  8  1  0  0  0  0
  3  9  1  0  0  0  0
M  END
$$$$
