C11H22O3
APtclcactv12111704493D 0   0.00000     0.00000
 
 36 35  0  0  0  0  0  0  0  0999 V2000
   -5.9505   -0.3459    0.0000 C   0  0  0  0  0  0  0  0  0  0  0  0
   -7.1739    0.5729   -0.0000 C   0  0  0  0  0  0  0  0  0  0  0  0
   -4.7605    0.4453   -0.0000 O   0  0  0  0  0  0  0  0  0  0  0  0
   -3.5537   -0.3199    0.0000 C   0  0  0  0  0  0  0  0  0  0  0  0
   -2.3505    0.6252    0.0000 C   0  0  0  0  0  0  0  0  0  0  0  0
   -1.0778   -0.1818    0.0000 C   0  0  0  0  0  0  0  0  0  0  0  0
   -1.1280   -1.3891    0.0000 O   0  0  0  0  0  0  0  0  0  0  0  0
    0.1115    0.4405    0.0000 O   0  0  0  0  0  0  0  0  0  0  0  0
    1.2954   -0.4002   -0.0000 C   0  0  0  0  0  0  0  0  0  0  0  0
    2.5464    0.4806    0.0000 C   0  0  0  0  0  0  0  0  0  0  0  0
    3.7939   -0.4052   -0.0000 C   0  0  0  0  0  0  0  0  0  0  0  0
    5.0449    0.4756    0.0000 C   0  0  0  0  0  0  0  0  0  0  0  0
    6.2923   -0.4102   -0.0000 C   0  0  0  0  0  0  0  0  0  0  0  0
    7.5433    0.4706    0.0000 C   0  0  0  0  0  0  0  0  0  0  0  0
   -5.9685   -0.9750    0.8900 H   0  0  0  0  0  0  0  0  0  0  0  0
   -5.9685   -0.9750   -0.8900 H   0  0  0  0  0  0  0  0  0  0  0  0
   -7.1558    1.2020   -0.8900 H   0  0  0  0  0  0  0  0  0  0  0  0
   -8.0815   -0.0306   -0.0000 H   0  0  0  0  0  0  0  0  0  0  0  0
   -7.1558    1.2020    0.8900 H   0  0  0  0  0  0  0  0  0  0  0  0
   -3.5220   -0.9484    0.8900 H   0  0  0  0  0  0  0  0  0  0  0  0
   -3.5220   -0.9484   -0.8900 H   0  0  0  0  0  0  0  0  0  0  0  0
   -2.3822    1.2537   -0.8900 H   0  0  0  0  0  0  0  0  0  0  0  0
   -2.3822    1.2537    0.8900 H   0  0  0  0  0  0  0  0  0  0  0  0
    1.2941   -1.0295    0.8900 H   0  0  0  0  0  0  0  0  0  0  0  0
    1.2941   -1.0295   -0.8900 H   0  0  0  0  0  0  0  0  0  0  0  0
    2.5477    1.1099   -0.8900 H   0  0  0  0  0  0  0  0  0  0  0  0
    2.5477    1.1099    0.8900 H   0  0  0  0  0  0  0  0  0  0  0  0
    3.7926   -1.0345    0.8900 H   0  0  0  0  0  0  0  0  0  0  0  0
    3.7926   -1.0345   -0.8900 H   0  0  0  0  0  0  0  0  0  0  0  0
    5.0461    1.1049   -0.8900 H   0  0  0  0  0  0  0  0  0  0  0  0
    5.0461    1.1049    0.8900 H   0  0  0  0  0  0  0  0  0  0  0  0
    6.2911   -1.0395    0.8900 H   0  0  0  0  0  0  0  0  0  0  0  0
    6.2911   -1.0395   -0.8900 H   0  0  0  0  0  0  0  0  0  0  0  0
    7.5446    1.0999    0.8900 H   0  0  0  0  0  0  0  0  0  0  0  0
    8.4321   -0.1605   -0.0000 H   0  0  0  0  0  0  0  0  0  0  0  0
    7.5446    1.0999   -0.8900 H   0  0  0  0  0  0  0  0  0  0  0  0
  1  2  1  0  0  0  0
  1  3  1  0  0  0  0
  3  4  1  0  0  0  0
  4  5  1  0  0  0  0
  5  6  1  0  0  0  0
  6  7  2  0  0  0  0
  6  8  1  0  0  0  0
  8  9  1  0  0  0  0
  9 10  1  0  0  0  0
 10 11  1  0  0  0  0
 11 12  1  0  0  0  0
 12 13  1  0  0  0  0
 13 14  1  0  0  0  0
  1 15  1  0  0  0  0
  1 16  1  0  0  0  0
  2 17  1  0  0  0  0
  2 18  1  0  0  0  0
  2 19  1  0  0  0  0
  4 20  1  0  0  0  0
  4 21  1  0  0  0  0
  5 22  1  0  0  0  0
  5 23  1  0  0  0  0
  9 24  1  0  0  0  0
  9 25  1  0  0  0  0
 10 26  1  0  0  0  0
 10 27  1  0  0  0  0
 11 28  1  0  0  0  0
 11 29  1  0  0  0  0
 12 30  1  0  0  0  0
 12 31  1  0  0  0  0
 13 32  1  0  0  0  0
 13 33  1  0  0  0  0
 14 34  1  0  0  0  0
 14 35  1  0  0  0  0
 14 36  1  0  0  0  0
M  END
$$$$
