C11H14ClNO
APtclcactv12211717343D 0   0.00000     0.00000
 
 28 28  0  0  0  0  0  0  0  0999 V2000
    1.2525    1.5471   -0.1253 C   0  0  0  0  0  0  0  0  0  0  0  0
    2.3565   -0.5693    0.1566 C   0  0  0  0  0  0  0  0  0  0  0  0
    2.4746    2.1880   -0.0704 C   0  0  0  0  0  0  0  0  0  0  0  0
    3.5755    0.0776    0.2103 C   0  0  0  0  0  0  0  0  0  0  0  0
    3.6349    1.4545    0.0970 C   0  0  0  0  0  0  0  0  0  0  0  0
   -2.5202   -0.4720   -0.0191 C   0  0  0  0  0  0  0  0  0  0  0  0
    0.7496   -2.4567   -1.2792 C   0  0  0  0  0  0  0  0  0  0  0  0
    0.4385   -2.5237    1.1989 C   0  0  0  0  0  0  0  0  0  0  0  0
    1.1895    0.1644   -0.0118 C   0  0  0  0  0  0  0  0  0  0  0  0
   -1.1420    1.4405   -0.1320 O   0  0  0  0  0  0  0  0  0  0  0  0
   -1.1878    0.2298   -0.0766 C   0  0  0  0  0  0  0  0  0  0  0  0
   -0.1020   -1.9512   -0.1130 C   0  0  0  0  0  0  0  0  0  0  0  0
   -3.8391    0.7514    0.1010 Cl  0  0  0  0  0  0  0  0  0  0  0  0
   -0.0471   -0.4880   -0.0666 N   0  0  0  0  0  0  0  0  0  0  0  0
   -1.1345   -2.2719   -0.2513 H   0  0  0  0  0  0  0  0  0  0  0  0
    0.3464    2.1209   -0.2519 H   0  0  0  0  0  0  0  0  0  0  0  0
    2.3109   -1.6448    0.2449 H   0  0  0  0  0  0  0  0  0  0  0  0
   -2.6571   -1.0663   -0.9225 H   0  0  0  0  0  0  0  0  0  0  0  0
   -2.5496   -1.1248    0.8533 H   0  0  0  0  0  0  0  0  0  0  0  0
    1.7965   -2.2142   -1.0966 H   0  0  0  0  0  0  0  0  0  0  0  0
    0.6374   -3.5372   -1.3695 H   0  0  0  0  0  0  0  0  0  0  0  0
    0.4217   -1.9790   -2.2025 H   0  0  0  0  0  0  0  0  0  0  0  0
   -0.2293   -2.2520    2.0163 H   0  0  0  0  0  0  0  0  0  0  0  0
    0.4983   -3.6095    1.1242 H   0  0  0  0  0  0  0  0  0  0  0  0
    1.4316   -2.1175    1.3907 H   0  0  0  0  0  0  0  0  0  0  0  0
    2.5243    3.2633   -0.1586 H   0  0  0  0  0  0  0  0  0  0  0  0
    4.4834   -0.4925    0.3416 H   0  0  0  0  0  0  0  0  0  0  0  0
    4.5894    1.9580    0.1389 H   0  0  0  0  0  0  0  0  0  0  0  0
  9 14  1  0  0  0  0
 11 14  1  0  0  0  0
 12 14  1  0  0  0  0
  1  9  2  0  0  0  0
  2  9  1  0  0  0  0
  6 11  1  0  0  0  0
 10 11  2  0  0  0  0
  7 12  1  0  0  0  0
  8 12  1  0  0  0  0
  1  3  1  0  0  0  0
  2  4  2  0  0  0  0
  6 13  1  0  0  0  0
  3  5  2  0  0  0  0
  4  5  1  0  0  0  0
 12 15  1  0  0  0  0
  1 16  1  0  0  0  0
  2 17  1  0  0  0  0
  6 18  1  0  0  0  0
  6 19  1  0  0  0  0
  7 20  1  0  0  0  0
  7 21  1  0  0  0  0
  7 22  1  0  0  0  0
  8 23  1  0  0  0  0
  8 24  1  0  0  0  0
  8 25  1  0  0  0  0
  3 26  1  0  0  0  0
  4 27  1  0  0  0  0
  5 28  1  0  0  0  0
M  END
$$$$
