C8H17NO
APtclcactv12151716383D 0   0.00000     0.00000
 
 27 26  0  0  0  0  0  0  0  0999 V2000
   -1.0941   -0.7262    0.2232 C   0  0  0  0  0  0  0  0  0  0  0  0
   -2.2420   -0.0354   -0.5157 C   0  0  0  0  0  0  0  0  0  0  0  0
   -3.5777   -0.5809   -0.0066 C   0  0  0  0  0  0  0  0  0  0  0  0
    0.2416   -0.1807   -0.2859 C   0  0  0  0  0  0  0  0  0  0  0  0
    0.3577    1.2785    0.0725 C   0  0  0  0  0  0  0  0  0  0  0  0
   -0.0663    1.6772    1.1365 O   0  0  0  0  0  0  0  0  0  0  0  0
    0.9325    2.1404   -0.7895 N   0  0  0  0  0  0  0  0  0  0  0  0
    1.3898   -0.9576    0.3614 C   0  0  0  0  0  0  0  0  0  0  0  0
    1.3206   -2.4238   -0.0703 C   0  0  0  0  0  0  0  0  0  0  0  0
    2.7255   -0.3578   -0.0825 C   0  0  0  0  0  0  0  0  0  0  0  0
   -1.1817   -0.5329    1.2924 H   0  0  0  0  0  0  0  0  0  0  0  0
   -1.1402   -1.8002    0.0432 H   0  0  0  0  0  0  0  0  0  0  0  0
   -2.1959    1.0386   -0.3357 H   0  0  0  0  0  0  0  0  0  0  0  0
   -2.1544   -0.2287   -1.5848 H   0  0  0  0  0  0  0  0  0  0  0  0
   -3.6239   -1.6550   -0.1866 H   0  0  0  0  0  0  0  0  0  0  0  0
   -3.6654   -0.3877    1.0625 H   0  0  0  0  0  0  0  0  0  0  0  0
   -4.3955   -0.0888   -0.5330 H   0  0  0  0  0  0  0  0  0  0  0  0
    0.2913   -0.2939   -1.3688 H   0  0  0  0  0  0  0  0  0  0  0  0
    1.2057    1.8368   -1.6693 H   0  0  0  0  0  0  0  0  0  0  0  0
    1.0731    3.0645   -0.5301 H   0  0  0  0  0  0  0  0  0  0  0  0
    1.3056   -0.8939    1.4462 H   0  0  0  0  0  0  0  0  0  0  0  0
    2.1386   -2.9774    0.3908 H   0  0  0  0  0  0  0  0  0  0  0  0
    0.3690   -2.8511    0.2460 H   0  0  0  0  0  0  0  0  0  0  0  0
    1.4048   -2.4876   -1.1552 H   0  0  0  0  0  0  0  0  0  0  0  0
    2.7750    0.6866    0.2253 H   0  0  0  0  0  0  0  0  0  0  0  0
    3.5435   -0.9115    0.3783 H   0  0  0  0  0  0  0  0  0  0  0  0
    2.8096   -0.4213   -1.1674 H   0  0  0  0  0  0  0  0  0  0  0  0
  1  2  1  0  0  0  0
  2  3  1  0  0  0  0
  1  4  1  0  0  0  0
  4  5  1  0  0  0  0
  5  6  2  0  0  0  0
  5  7  1  0  0  0  0
  4  8  1  0  0  0  0
  8  9  1  0  0  0  0
  8 10  1  0  0  0  0
  1 11  1  0  0  0  0
  1 12  1  0  0  0  0
  2 13  1  0  0  0  0
  2 14  1  0  0  0  0
  3 15  1  0  0  0  0
  3 16  1  0  0  0  0
  3 17  1  0  0  0  0
  4 18  1  0  0  0  0
  7 19  1  0  0  0  0
  7 20  1  0  0  0  0
  8 21  1  0  0  0  0
  9 22  1  0  0  0  0
  9 23  1  0  0  0  0
  9 24  1  0  0  0  0
 10 25  1  0  0  0  0
 10 26  1  0  0  0  0
 10 27  1  0  0  0  0
M  END
$$$$
