C7H6O3
APtclcactv12151716163D 0   0.00000     0.00000
 
 16 16  0  0  0  0  0  0  0  0999 V2000
    2.6185   -0.6227    0.0064 C   0  0  0  0  0  0  0  0  0  0  0  0
    1.2130   -0.1970   -0.0039 C   0  0  0  0  0  0  0  0  0  0  0  0
    0.1898   -1.1530   -0.0165 C   0  0  0  0  0  0  0  0  0  0  0  0
   -1.1293   -0.7466   -0.0263 C   0  0  0  0  0  0  0  0  0  0  0  0
   -2.1257   -1.6721   -0.0381 O   0  0  0  0  0  0  0  0  0  0  0  0
   -1.4406    0.6131   -0.0235 C   0  0  0  0  0  0  0  0  0  0  0  0
   -2.7387    1.0101   -0.0327 O   0  0  0  0  0  0  0  0  0  0  0  0
   -0.4263    1.5621   -0.0110 C   0  0  0  0  0  0  0  0  0  0  0  0
    0.8921    1.1658    0.0046 C   0  0  0  0  0  0  0  0  0  0  0  0
    3.5034    0.2068    0.0174 O   0  0  0  0  0  0  0  0  0  0  0  0
    2.8642   -1.6744    0.0088 H   0  0  0  0  0  0  0  0  0  0  0  0
    0.4321   -2.2055   -0.0190 H   0  0  0  0  0  0  0  0  0  0  0  0
   -2.4214   -1.9430    0.8419 H   0  0  0  0  0  0  0  0  0  0  0  0
   -3.1221    1.1217    0.8480 H   0  0  0  0  0  0  0  0  0  0  0  0
   -0.6726    2.6137   -0.0089 H   0  0  0  0  0  0  0  0  0  0  0  0
    1.6786    1.9059    0.0143 H   0  0  0  0  0  0  0  0  0  0  0  0
  1  2  1  0  0  0  0
  2  3  2  0  0  0  0
  3  4  1  0  0  0  0
  4  5  1  0  0  0  0
  4  6  2  0  0  0  0
  6  7  1  0  0  0  0
  6  8  1  0  0  0  0
  8  9  2  0  0  0  0
  2  9  1  0  0  0  0
  1 10  2  0  0  0  0
  1 11  1  0  0  0  0
  3 12  1  0  0  0  0
  5 13  1  0  0  0  0
  7 14  1  0  0  0  0
  8 15  1  0  0  0  0
  9 16  1  0  0  0  0
M  END
$$$$
