C11H6O3
APtclcactv12211717313D 0   0.00000     0.00000
 
 20 22  0  0  0  0  0  0  0  0999 V2000
    0.7508   -1.4948    0.0002 C   0  0  0  0  0  0  0  0  0  0  0  0
    0.5161    1.2999    0.0003 C   0  0  0  0  0  0  0  0  0  0  0  0
    3.3297   -0.9712   -0.0006 C   0  0  0  0  0  0  0  0  0  0  0  0
    3.9368    0.2219   -0.0002 C   0  0  0  0  0  0  0  0  0  0  0  0
   -4.0478    0.9042   -0.0002 O   0  0  0  0  0  0  0  0  0  0  0  0
   -2.9667    0.3437   -0.0003 C   0  0  0  0  0  0  0  0  0  0  0  0
   -0.5073   -0.8932    0.0003 C   0  0  0  0  0  0  0  0  0  0  0  0
   -0.6220    0.5128    0.0004 C   0  0  0  0  0  0  0  0  0  0  0  0
   -1.8477    1.0840    0.0001 O   0  0  0  0  0  0  0  0  0  0  0  0
   -1.7275   -1.7063   -0.0000 C   0  0  0  0  0  0  0  0  0  0  0  0
   -2.9245   -1.0667   -0.0003 C   0  0  0  0  0  0  0  0  0  0  0  0
    1.8860   -0.6960    0.0001 C   0  0  0  0  0  0  0  0  0  0  0  0
    1.7713    0.7089    0.0001 C   0  0  0  0  0  0  0  0  0  0  0  0
    3.0238    1.2095   -0.0000 O   0  0  0  0  0  0  0  0  0  0  0  0
    0.8410   -2.5710    0.0047 H   0  0  0  0  0  0  0  0  0  0  0  0
   -1.6750   -2.7850   -0.0004 H   0  0  0  0  0  0  0  0  0  0  0  0
    0.4271    2.3762   -0.0001 H   0  0  0  0  0  0  0  0  0  0  0  0
   -3.8424   -1.6358   -0.0003 H   0  0  0  0  0  0  0  0  0  0  0  0
    3.8051   -1.9409   -0.0015 H   0  0  0  0  0  0  0  0  0  0  0  0
    5.0065    0.3702   -0.0003 H   0  0  0  0  0  0  0  0  0  0  0  0
  7  8  1  0  0  0  0
  1  7  2  0  0  0  0
  7 10  1  0  0  0  0
  2  8  2  0  0  0  0
  8  9  1  0  0  0  0
  1 12  1  0  0  0  0
 10 11  2  0  0  0  0
  2 13  1  0  0  0  0
  6  9  1  0  0  0  0
  3 12  1  0  0  0  0
 13 14  1  0  0  0  0
  5  6  2  0  0  0  0
  3  4  2  0  0  0  0
 12 13  2  0  0  0  0
  6 11  1  0  0  0  0
  4 14  1  0  0  0  0
  1 15  1  0  0  0  0
 10 16  1  0  0  0  0
  2 17  1  0  0  0  0
 11 18  1  0  0  0  0
  3 19  1  0  0  0  0
  4 20  1  0  0  0  0
M  END
$$$$
