C14H8O5
APtclcactv12091702553D 0   0.00000     0.00000
 
 27 29  0  0  0  0  0  0  0  0999 V2000
    2.9608   -1.0892    0.1598 C   0  0  0  0  0  0  0  0  0  0  0  0
   -2.9372    1.6206    0.1195 C   0  0  0  0  0  0  0  0  0  0  0  0
   -3.2213   -1.1510    0.1698 C   0  0  0  0  0  0  0  0  0  0  0  0
   -4.1825    1.0463    0.3034 C   0  0  0  0  0  0  0  0  0  0  0  0
   -4.3235   -0.3296    0.3284 C   0  0  0  0  0  0  0  0  0  0  0  0
    2.0904    2.8785    0.8522 H   0  0  0  0  0  0  0  0  0  0  0  0
    1.6120   -3.4332   -0.7918 H   0  0  0  0  0  0  0  0  0  0  0  0
    4.6171    1.0174    1.1475 H   0  0  0  0  0  0  0  0  0  0  0  0
    1.9830    1.1145    0.0046 C   0  0  0  0  0  0  0  0  0  0  0  0
    1.6989   -1.6681    0.0549 C   0  0  0  0  0  0  0  0  0  0  0  0
    3.1060    0.2843    0.1352 C   0  0  0  0  0  0  0  0  0  0  0  0
   -0.3631    2.5836   -0.5112 O   0  0  0  0  0  0  0  0  0  0  0  0
   -0.8999   -2.6394   -0.4165 O   0  0  0  0  0  0  0  0  0  0  0  0
    2.1319    2.4624   -0.0198 O   0  0  0  0  0  0  0  0  0  0  0  0
    1.5664   -3.0173    0.0800 O   0  0  0  0  0  0  0  0  0  0  0  0
    4.3429    0.8338    0.2385 O   0  0  0  0  0  0  0  0  0  0  0  0
   -0.4789    1.4042   -0.2392 C   0  0  0  0  0  0  0  0  0  0  0  0
   -0.7717   -1.4520   -0.1868 C   0  0  0  0  0  0  0  0  0  0  0  0
    0.7146    0.5492   -0.1015 C   0  0  0  0  0  0  0  0  0  0  0  0
    0.5692   -0.8561   -0.0759 C   0  0  0  0  0  0  0  0  0  0  0  0
   -1.8187    0.8092   -0.0418 C   0  0  0  0  0  0  0  0  0  0  0  0
   -1.9621   -0.5901   -0.0162 C   0  0  0  0  0  0  0  0  0  0  0  0
    3.8321   -1.7186    0.2657 H   0  0  0  0  0  0  0  0  0  0  0  0
   -2.8339    2.6955    0.1005 H   0  0  0  0  0  0  0  0  0  0  0  0
   -3.3383   -2.2244    0.1907 H   0  0  0  0  0  0  0  0  0  0  0  0
   -5.0504    1.6766    0.4290 H   0  0  0  0  0  0  0  0  0  0  0  0
   -5.3009   -0.7658    0.4724 H   0  0  0  0  0  0  0  0  0  0  0  0
 19 20  1  0  0  0  0
 17 19  1  0  0  0  0
  9 19  2  0  0  0  0
 18 20  1  0  0  0  0
 10 20  2  0  0  0  0
 17 21  1  0  0  0  0
 12 17  2  0  0  0  0
  9 11  1  0  0  0  0
  9 14  1  0  0  0  0
 18 22  1  0  0  0  0
 13 18  2  0  0  0  0
  1 10  1  0  0  0  0
 10 15  1  0  0  0  0
  2 21  1  0  0  0  0
 11 16  1  0  0  0  0
  3 22  1  0  0  0  0
  2  4  2  0  0  0  0
  3  5  2  0  0  0  0
 21 22  2  0  0  0  0
  1 11  2  0  0  0  0
  4  5  1  0  0  0  0
  6 14  1  0  0  0  0
  1 23  1  0  0  0  0
  7 15  1  0  0  0  0
  2 24  1  0  0  0  0
  8 16  1  0  0  0  0
  3 25  1  0  0  0  0
  4 26  1  0  0  0  0
  5 27  1  0  0  0  0
M  END
$$$$
