C14H20N3O5PS
APtclcactv12211717033D 0   0.00000     0.00000
 
 44 45  0  0  0  0  0  0  0  0999 V2000
    0.4755   -1.6006   -0.5325 C   0  0  0  0  0  0  0  0  0  0  0  0
   -6.9090    0.7246    0.2418 C   0  0  0  0  0  0  0  0  0  0  0  0
    5.9980   -0.4131    0.5247 C   0  0  0  0  0  0  0  0  0  0  0  0
    2.1720    2.1861    0.6875 C   0  0  0  0  0  0  0  0  0  0  0  0
   -8.0283   -0.2385    0.6424 C   0  0  0  0  0  0  0  0  0  0  0  0
   -4.2822   -2.0652    0.6863 C   0  0  0  0  0  0  0  0  0  0  0  0
    7.3234   -0.8111   -0.1279 C   0  0  0  0  0  0  0  0  0  0  0  0
    2.3760    3.7018    0.7310 C   0  0  0  0  0  0  0  0  0  0  0  0
    1.1681   -0.5048   -1.0441 C   0  0  0  0  0  0  0  0  0  0  0  0
   -4.6511    1.9010   -0.3991 O   0  0  0  0  0  0  0  0  0  0  0  0
   -4.5550    0.7141   -0.1568 C   0  0  0  0  0  0  0  0  0  0  0  0
   -5.6491    0.0053    0.1841 O   0  0  0  0  0  0  0  0  0  0  0  0
    2.4919   -0.4789   -1.3496 O   0  0  0  0  0  0  0  0  0  0  0  0
    4.9659   -0.3984   -0.4635 O   0  0  0  0  0  0  0  0  0  0  0  0
    3.3097    1.5695    0.0814 O   0  0  0  0  0  0  0  0  0  0  0  0
   -3.2413    0.0498   -0.2356 C   0  0  0  0  0  0  0  0  0  0  0  0
   -3.0923   -1.2985    0.1693 C   0  0  0  0  0  0  0  0  0  0  0  0
   -0.8460   -1.2193   -0.3605 C   0  0  0  0  0  0  0  0  0  0  0  0
   -2.1361    0.7338   -0.7062 C   0  0  0  0  0  0  0  0  0  0  0  0
    0.3303    0.5005   -1.1835 N   0  0  0  0  0  0  0  0  0  0  0  0
    3.4368   -0.0217   -0.1288 P   0  0  0  0  0  0  0  0  0  0  0  0
   -1.9216   -1.8794    0.0956 N   0  0  0  0  0  0  0  0  0  0  0  0
    2.9076   -0.8981    1.4283 S   0  0  0  0  0  0  0  0  0  0  0  0
   -0.9408    0.0896   -0.7651 N   0  0  0  0  0  0  0  0  0  0  0  0
   -7.1293    1.1507   -0.7370 H   0  0  0  0  0  0  0  0  0  0  0  0
   -6.8372    1.5247    0.9785 H   0  0  0  0  0  0  0  0  0  0  0  0
   -2.2210    1.7632   -1.0217 H   0  0  0  0  0  0  0  0  0  0  0  0
   -7.8081   -0.6646    1.6212 H   0  0  0  0  0  0  0  0  0  0  0  0
   -8.9742    0.3015    0.6857 H   0  0  0  0  0  0  0  0  0  0  0  0
   -8.1002   -1.0386   -0.0944 H   0  0  0  0  0  0  0  0  0  0  0  0
   -4.8421   -2.4768   -0.1535 H   0  0  0  0  0  0  0  0  0  0  0  0
   -3.9403   -2.8774    1.3278 H   0  0  0  0  0  0  0  0  0  0  0  0
   -4.9249   -1.3962    1.2584 H   0  0  0  0  0  0  0  0  0  0  0  0
    0.8921   -2.5727   -0.3140 H   0  0  0  0  0  0  0  0  0  0  0  0
    5.7456   -1.1332    1.3031 H   0  0  0  0  0  0  0  0  0  0  0  0
    6.0935    0.5794    0.9651 H   0  0  0  0  0  0  0  0  0  0  0  0
    2.0505    1.8066    1.7020 H   0  0  0  0  0  0  0  0  0  0  0  0
    1.2803    1.9561    0.1043 H   0  0  0  0  0  0  0  0  0  0  0  0
    8.1106   -0.8223    0.6258 H   0  0  0  0  0  0  0  0  0  0  0  0
    7.2278   -1.8036   -0.5683 H   0  0  0  0  0  0  0  0  0  0  0  0
    7.5758   -0.0910   -0.9063 H   0  0  0  0  0  0  0  0  0  0  0  0
    3.2677    3.9318    1.3142 H   0  0  0  0  0  0  0  0  0  0  0  0
    2.4975    4.0813   -0.2835 H   0  0  0  0  0  0  0  0  0  0  0  0
    1.5082    4.1721    1.1934 H   0  0  0  0  0  0  0  0  0  0  0  0
 11 12  1  0  0  0  0
  2 12  1  0  0  0  0
 10 11  2  0  0  0  0
 11 16  1  0  0  0  0
 16 19  2  0  0  0  0
 16 17  1  0  0  0  0
  2  5  1  0  0  0  0
 19 24  1  0  0  0  0
  6 17  1  0  0  0  0
 17 22  2  0  0  0  0
 18 24  1  0  0  0  0
 20 24  1  0  0  0  0
 18 22  1  0  0  0  0
  1 18  2  0  0  0  0
  9 20  2  0  0  0  0
  1  9  1  0  0  0  0
  9 13  1  0  0  0  0
 13 21  1  0  0  0  0
 14 21  1  0  0  0  0
 15 21  1  0  0  0  0
 21 23  2  0  0  0  0
  3 14  1  0  0  0  0
  4 15  1  0  0  0  0
  3  7  1  0  0  0  0
  4  8  1  0  0  0  0
  2 25  1  0  0  0  0
  2 26  1  0  0  0  0
 19 27  1  0  0  0  0
  5 28  1  0  0  0  0
  5 29  1  0  0  0  0
  5 30  1  0  0  0  0
  6 31  1  0  0  0  0
  6 32  1  0  0  0  0
  6 33  1  0  0  0  0
  1 34  1  0  0  0  0
  3 35  1  0  0  0  0
  3 36  1  0  0  0  0
  4 37  1  0  0  0  0
  4 38  1  0  0  0  0
  7 39  1  0  0  0  0
  7 40  1  0  0  0  0
  7 41  1  0  0  0  0
  8 42  1  0  0  0  0
  8 43  1  0  0  0  0
  8 44  1  0  0  0  0
M  END
$$$$
