C12H13ClN4
APtclcactv12111704583D 0   0.00000     0.00000
 
 30 31  0  0  0  0  0  0  0  0999 V2000
    1.1336   -0.1766   -1.2238 C   0  0  0  0  0  0  0  0  0  0  0  0
    1.1285    0.4839    1.0956 C   0  0  0  0  0  0  0  0  0  0  0  0
    2.5133   -0.1969   -1.2093 C   0  0  0  0  0  0  0  0  0  0  0  0
    2.5081    0.4602    1.0997 C   0  0  0  0  0  0  0  0  0  0  0  0
   -1.0807   -2.3162   -0.3281 C   0  0  0  0  0  0  0  0  0  0  0  0
   -0.8204   -2.8901    1.0661 C   0  0  0  0  0  0  0  0  0  0  0  0
   -0.1046    2.6080    0.1803 H   0  0  0  0  0  0  0  0  0  0  0  0
   -1.5676    3.4307    0.2538 H   0  0  0  0  0  0  0  0  0  0  0  0
   -5.6138   -0.5829   -0.1947 H   0  0  0  0  0  0  0  0  0  0  0  0
   -5.5964    1.0889   -0.0285 H   0  0  0  0  0  0  0  0  0  0  0  0
   -1.0508    0.1886   -0.0789 C   0  0  0  0  0  0  0  0  0  0  0  0
    0.4318    0.1647   -0.0688 C   0  0  0  0  0  0  0  0  0  0  0  0
   -1.7838   -0.9893   -0.2019 C   0  0  0  0  0  0  0  0  0  0  0  0
   -1.7545    1.4017    0.0414 C   0  0  0  0  0  0  0  0  0  0  0  0
   -3.7368    0.2321   -0.0973 C   0  0  0  0  0  0  0  0  0  0  0  0
    3.2004    0.1205   -0.0501 C   0  0  0  0  0  0  0  0  0  0  0  0
    4.9361    0.0920   -0.0381 Cl  0  0  0  0  0  0  0  0  0  0  0  0
   -1.0745    2.5995    0.1714 N   0  0  0  0  0  0  0  0  0  0  0  0
   -5.1201    0.2476   -0.1079 N   0  0  0  0  0  0  0  0  0  0  0  0
   -3.1058   -0.9279   -0.2070 N   0  0  0  0  0  0  0  0  0  0  0  0
   -3.0820    1.3771    0.0275 N   0  0  0  0  0  0  0  0  0  0  0  0
    0.5986   -0.4204   -2.1297 H   0  0  0  0  0  0  0  0  0  0  0  0
    0.5893    0.7487    1.9931 H   0  0  0  0  0  0  0  0  0  0  0  0
   -0.1321   -2.1769   -0.8466 H   0  0  0  0  0  0  0  0  0  0  0  0
   -1.7062   -3.0065   -0.8942 H   0  0  0  0  0  0  0  0  0  0  0  0
    3.0580   -0.4612   -2.1036 H   0  0  0  0  0  0  0  0  0  0  0  0
    3.0489    0.7074    2.0013 H   0  0  0  0  0  0  0  0  0  0  0  0
   -0.2597   -2.1666    1.6579 H   0  0  0  0  0  0  0  0  0  0  0  0
   -1.7713   -3.1009    1.5555 H   0  0  0  0  0  0  0  0  0  0  0  0
   -0.2449   -3.8116    0.9781 H   0  0  0  0  0  0  0  0  0  0  0  0
 11 12  1  0  0  0  0
 11 13  2  0  0  0  0
 11 14  1  0  0  0  0
  1 12  2  0  0  0  0
  2 12  1  0  0  0  0
 13 20  1  0  0  0  0
  5 13  1  0  0  0  0
 14 21  2  0  0  0  0
 14 18  1  0  0  0  0
  1  3  1  0  0  0  0
  2  4  2  0  0  0  0
 15 20  2  0  0  0  0
  5  6  1  0  0  0  0
  3 16  2  0  0  0  0
 15 19  1  0  0  0  0
 16 17  1  0  0  0  0
 15 21  1  0  0  0  0
  4 16  1  0  0  0  0
  1 22  1  0  0  0  0
  2 23  1  0  0  0  0
  5 24  1  0  0  0  0
  5 25  1  0  0  0  0
  7 18  1  0  0  0  0
  8 18  1  0  0  0  0
  3 26  1  0  0  0  0
  4 27  1  0  0  0  0
  6 28  1  0  0  0  0
  6 29  1  0  0  0  0
  6 30  1  0  0  0  0
  9 19  1  0  0  0  0
 10 19  1  0  0  0  0
M  END
$$$$
