C10H6O8
APtclcactv12151716553D 0   0.00000     0.00000
 
 24 24  0  0  0  0  0  0  0  0999 V2000
    2.4874   -1.4350    0.0011 C   0  0  0  0  0  0  0  0  0  0  0  0
    1.2056   -0.6949    0.0007 C   0  0  0  0  0  0  0  0  0  0  0  0
    1.2056    0.7119    0.0007 C   0  0  0  0  0  0  0  0  0  0  0  0
    2.4875    1.4519    0.0011 C   0  0  0  0  0  0  0  0  0  0  0  0
    3.3129    1.2361    0.8652 O   0  0  0  0  0  0  0  0  0  0  0  0
    2.7384    2.3648   -0.9569 O   0  0  0  0  0  0  0  0  0  0  0  0
    0.0000    1.4079   -0.0001 C   0  0  0  0  0  0  0  0  0  0  0  0
   -1.2056    0.7119   -0.0004 C   0  0  0  0  0  0  0  0  0  0  0  0
   -2.4875    1.4520   -0.0008 C   0  0  0  0  0  0  0  0  0  0  0  0
   -3.3130    1.2361   -0.8647 O   0  0  0  0  0  0  0  0  0  0  0  0
   -2.7382    2.3650    0.9571 O   0  0  0  0  0  0  0  0  0  0  0  0
   -1.2056   -0.6948   -0.0009 C   0  0  0  0  0  0  0  0  0  0  0  0
   -2.4875   -1.4349   -0.0018 C   0  0  0  0  0  0  0  0  0  0  0  0
   -3.5361   -0.8332    0.1119 O   0  0  0  0  0  0  0  0  0  0  0  0
   -2.4909   -2.7758   -0.1286 O   0  0  0  0  0  0  0  0  0  0  0  0
   -0.0000   -1.3909   -0.0054 C   0  0  0  0  0  0  0  0  0  0  0  0
    3.5360   -0.8331   -0.1111 O   0  0  0  0  0  0  0  0  0  0  0  0
    2.4910   -2.7755    0.1315 O   0  0  0  0  0  0  0  0  0  0  0  0
    3.5891    2.8226   -0.9151 H   0  0  0  0  0  0  0  0  0  0  0  0
    0.0000    2.4879   -0.0000 H   0  0  0  0  0  0  0  0  0  0  0  0
   -3.5889    2.8229    0.9153 H   0  0  0  0  0  0  0  0  0  0  0  0
   -3.3524   -3.2150   -0.1237 H   0  0  0  0  0  0  0  0  0  0  0  0
   -0.0000   -2.4709   -0.0058 H   0  0  0  0  0  0  0  0  0  0  0  0
    3.3525   -3.2148    0.1262 H   0  0  0  0  0  0  0  0  0  0  0  0
  1  2  1  0  0  0  0
  2  3  1  0  0  0  0
  3  4  1  0  0  0  0
  4  5  2  0  0  0  0
  4  6  1  0  0  0  0
  3  7  2  0  0  0  0
  7  8  1  0  0  0  0
  8  9  1  0  0  0  0
  9 10  2  0  0  0  0
  9 11  1  0  0  0  0
  8 12  2  0  0  0  0
 12 13  1  0  0  0  0
 13 14  2  0  0  0  0
 13 15  1  0  0  0  0
 12 16  1  0  0  0  0
  2 16  2  0  0  0  0
  1 17  2  0  0  0  0
  1 18  1  0  0  0  0
  6 19  1  0  0  0  0
  7 20  1  0  0  0  0
 11 21  1  0  0  0  0
 15 22  1  0  0  0  0
 16 23  1  0  0  0  0
 18 24  1  0  0  0  0
M  END
$$$$
