C13H15NO3
APtclcactv12071713263D 0   0.00000     0.00000
 
 32 33  0  0  0  0  0  0  0  0999 V2000
   -1.5118    0.7866   -0.0411 C   0  0  0  0  0  0  0  0  0  0  0  0
   -2.8887    0.2527   -0.0023 C   0  0  0  0  0  0  0  0  0  0  0  0
   -3.9794    1.1244   -0.0090 C   0  0  0  0  0  0  0  0  0  0  0  0
   -5.2624    0.6191    0.0269 C   0  0  0  0  0  0  0  0  0  0  0  0
   -5.4698   -0.7483    0.0700 C   0  0  0  0  0  0  0  0  0  0  0  0
   -4.3936   -1.6178    0.0774 C   0  0  0  0  0  0  0  0  0  0  0  0
   -3.1054   -1.1262    0.0355 C   0  0  0  0  0  0  0  0  0  0  0  0
   -1.3266    1.9865   -0.0790 O   0  0  0  0  0  0  0  0  0  0  0  0
   -0.4617   -0.0570   -0.0289 O   0  0  0  0  0  0  0  0  0  0  0  0
    0.8623    0.5378   -0.0689 C   0  0  0  0  0  0  0  0  0  0  0  0
    1.9033   -0.5516   -0.0483 C   0  0  0  0  0  0  0  0  0  0  0  0
    1.5630   -1.7148   -0.0043 O   0  0  0  0  0  0  0  0  0  0  0  0
    3.2126   -0.2332   -0.0789 N   0  0  0  0  0  0  0  0  0  0  0  0
    4.3279   -1.1910   -0.0639 C   0  0  0  0  0  0  0  0  0  0  0  0
    5.6356   -0.3719   -0.0849 C   0  0  0  0  0  0  0  0  0  0  0  0
    5.1887    1.0102    0.4605 C   0  0  0  0  0  0  0  0  0  0  0  0
    3.7634    1.1329   -0.1394 C   0  0  0  0  0  0  0  0  0  0  0  0
   -3.8188    2.1919   -0.0419 H   0  0  0  0  0  0  0  0  0  0  0  0
   -6.1069    1.2922    0.0218 H   0  0  0  0  0  0  0  0  0  0  0  0
   -6.4764   -1.1386    0.0984 H   0  0  0  0  0  0  0  0  0  0  0  0
   -4.5625   -2.6840    0.1118 H   0  0  0  0  0  0  0  0  0  0  0  0
   -2.2662   -1.8060    0.0410 H   0  0  0  0  0  0  0  0  0  0  0  0
    0.9692    1.1254   -0.9808 H   0  0  0  0  0  0  0  0  0  0  0  0
    0.9963    1.1848    0.7980 H   0  0  0  0  0  0  0  0  0  0  0  0
    4.2843   -1.7966    0.8414 H   0  0  0  0  0  0  0  0  0  0  0  0
    4.2779   -1.8321   -0.9440 H   0  0  0  0  0  0  0  0  0  0  0  0
    6.3828   -0.8214    0.5692 H   0  0  0  0  0  0  0  0  0  0  0  0
    6.0169   -0.2802   -1.1019 H   0  0  0  0  0  0  0  0  0  0  0  0
    5.1588    1.0091    1.5501 H   0  0  0  0  0  0  0  0  0  0  0  0
    5.8365    1.8046    0.0898 H   0  0  0  0  0  0  0  0  0  0  0  0
    3.8148    1.4816   -1.1709 H   0  0  0  0  0  0  0  0  0  0  0  0
    3.1561    1.8101    0.4610 H   0  0  0  0  0  0  0  0  0  0  0  0
  1  2  1  0  0  0  0
  2  3  2  0  0  0  0
  3  4  1  0  0  0  0
  4  5  2  0  0  0  0
  5  6  1  0  0  0  0
  6  7  2  0  0  0  0
  2  7  1  0  0  0  0
  1  8  2  0  0  0  0
  1  9  1  0  0  0  0
  9 10  1  0  0  0  0
 10 11  1  0  0  0  0
 11 12  2  0  0  0  0
 11 13  1  0  0  0  0
 13 14  1  0  0  0  0
 14 15  1  0  0  0  0
 15 16  1  0  0  0  0
 16 17  1  0  0  0  0
 13 17  1  0  0  0  0
  3 18  1  0  0  0  0
  4 19  1  0  0  0  0
  5 20  1  0  0  0  0
  6 21  1  0  0  0  0
  7 22  1  0  0  0  0
 10 23  1  0  0  0  0
 10 24  1  0  0  0  0
 14 25  1  0  0  0  0
 14 26  1  0  0  0  0
 15 27  1  0  0  0  0
 15 28  1  0  0  0  0
 16 29  1  0  0  0  0
 16 30  1  0  0  0  0
 17 31  1  0  0  0  0
 17 32  1  0  0  0  0
M  END
$$$$
