C12H15N2O3PS
APtclcactv12111705003D 0   0.00000     0.00000
 
 34 35  0  0  0  0  0  0  0  0999 V2000
    3.5740    1.6251   -0.4809 C   0  0  0  0  0  0  0  0  0  0  0  0
    4.5096   -0.9723   -0.0566 C   0  0  0  0  0  0  0  0  0  0  0  0
    4.8366    1.2682   -0.8427 C   0  0  0  0  0  0  0  0  0  0  0  0
    1.1788   -1.2161    1.2485 C   0  0  0  0  0  0  0  0  0  0  0  0
    5.3033   -0.0276   -0.6310 C   0  0  0  0  0  0  0  0  0  0  0  0
   -2.6386   -1.9636   -1.0058 C   0  0  0  0  0  0  0  0  0  0  0  0
   -4.0691    1.1956   -0.2861 C   0  0  0  0  0  0  0  0  0  0  0  0
   -2.7522   -3.4784   -0.8228 C   0  0  0  0  0  0  0  0  0  0  0  0
   -5.2070    1.9429    0.4122 C   0  0  0  0  0  0  0  0  0  0  0  0
    0.7055    0.0889    1.0366 C   0  0  0  0  0  0  0  0  0  0  0  0
   -0.5573    0.4145    1.4072 O   0  0  0  0  0  0  0  0  0  0  0  0
   -1.9561   -1.3983    0.1152 O   0  0  0  0  0  0  0  0  0  0  0  0
   -3.0179    0.9468    0.6494 O   0  0  0  0  0  0  0  0  0  0  0  0
    1.4786    0.9996    0.4805 N   0  0  0  0  0  0  0  0  0  0  0  0
    2.3973   -1.5503    0.8968 N   0  0  0  0  0  0  0  0  0  0  0  0
   -1.6589    0.1777    0.2573 P   0  0  0  0  0  0  0  0  0  0  0  0
    2.7254    0.6766    0.1149 C   0  0  0  0  0  0  0  0  0  0  0  0
    3.1997   -0.6408    0.3302 C   0  0  0  0  0  0  0  0  0  0  0  0
   -1.0172    0.8374   -1.3631 S   0  0  0  0  0  0  0  0  0  0  0  0
    3.2272    2.6344   -0.6470 H   0  0  0  0  0  0  0  0  0  0  0  0
    4.8848   -1.9727    0.1013 H   0  0  0  0  0  0  0  0  0  0  0  0
    5.4860    1.9997   -1.3007 H   0  0  0  0  0  0  0  0  0  0  0  0
    0.5334   -1.9515    1.7058 H   0  0  0  0  0  0  0  0  0  0  0  0
    6.3095   -0.2860   -0.9266 H   0  0  0  0  0  0  0  0  0  0  0  0
   -2.0806   -1.7486   -1.9171 H   0  0  0  0  0  0  0  0  0  0  0  0
   -3.6362   -1.5308   -1.0798 H   0  0  0  0  0  0  0  0  0  0  0  0
   -4.4415    0.2478   -0.6747 H   0  0  0  0  0  0  0  0  0  0  0  0
   -3.6878    1.8008   -1.1086 H   0  0  0  0  0  0  0  0  0  0  0  0
   -3.2728   -3.9096   -1.6778 H   0  0  0  0  0  0  0  0  0  0  0  0
   -1.7545   -3.9113   -0.7487 H   0  0  0  0  0  0  0  0  0  0  0  0
   -3.3101   -3.6935    0.0885 H   0  0  0  0  0  0  0  0  0  0  0  0
   -5.5883    1.3377    1.2347 H   0  0  0  0  0  0  0  0  0  0  0  0
   -4.8345    2.8908    0.8008 H   0  0  0  0  0  0  0  0  0  0  0  0
   -6.0088    2.1327   -0.3014 H   0  0  0  0  0  0  0  0  0  0  0  0
 17 18  2  0  0  0  0
 14 17  1  0  0  0  0
  1 17  1  0  0  0  0
 15 18  1  0  0  0  0
  2 18  1  0  0  0  0
 10 14  2  0  0  0  0
  1  3  2  0  0  0  0
  4 15  2  0  0  0  0
  2  5  2  0  0  0  0
 10 11  1  0  0  0  0
 11 16  1  0  0  0  0
 12 16  1  0  0  0  0
 13 16  1  0  0  0  0
 16 19  2  0  0  0  0
  6 12  1  0  0  0  0
  7 13  1  0  0  0  0
  6  8  1  0  0  0  0
  7  9  1  0  0  0  0
  4 10  1  0  0  0  0
  3  5  1  0  0  0  0
  1 20  1  0  0  0  0
  2 21  1  0  0  0  0
  3 22  1  0  0  0  0
  4 23  1  0  0  0  0
  5 24  1  0  0  0  0
  6 25  1  0  0  0  0
  6 26  1  0  0  0  0
  7 27  1  0  0  0  0
  7 28  1  0  0  0  0
  8 29  1  0  0  0  0
  8 30  1  0  0  0  0
  8 31  1  0  0  0  0
  9 32  1  0  0  0  0
  9 33  1  0  0  0  0
  9 34  1  0  0  0  0
M  END
$$$$
