C12H10O4
APtclcactv12111704573D 0   0.00000     0.00000
 
 26 26  0  0  0  0  0  0  0  0999 V2000
    8.0429    2.4610   -0.6641 H   0  0  0  0  0  0  0  0  0  0  0  0
    9.7798    0.7484   -0.9929 H   0  0  0  0  0  0  0  0  0  0  0  0
    5.4885   -0.4699    1.1087 H   0  0  0  0  0  0  0  0  0  0  0  0
    7.2272   -2.1815    0.7840 H   0  0  0  0  0  0  0  0  0  0  0  0
   -9.6464    1.6722    0.2460 O   0  0  0  0  0  0  0  0  0  0  0  0
   -5.9077   -1.9566   -0.3665 O   0  0  0  0  0  0  0  0  0  0  0  0
   -8.7810    0.8321    0.1041 C   0  0  0  0  0  0  0  0  0  0  0  0
   -6.7731   -1.1165   -0.2246 C   0  0  0  0  0  0  0  0  0  0  0  0
    7.8638    1.4432   -0.3505 C   0  0  0  0  0  0  0  0  0  0  0  0
    8.8397    0.4827   -0.5325 C   0  0  0  0  0  0  0  0  0  0  0  0
    6.4288   -0.2040    0.6487 C   0  0  0  0  0  0  0  0  0  0  0  0
    7.4045   -1.1647    0.4663 C   0  0  0  0  0  0  0  0  0  0  0  0
   -7.4893    1.1991   -0.5112 C   0  0  0  0  0  0  0  0  0  0  0  0
   -9.0178   -0.5552    0.5525 C   0  0  0  0  0  0  0  0  0  0  0  0
   -6.5342    0.2722   -0.6678 C   0  0  0  0  0  0  0  0  0  0  0  0
   -8.0627   -1.4822    0.3959 C   0  0  0  0  0  0  0  0  0  0  0  0
    6.6563    1.1018    0.2403 C   0  0  0  0  0  0  0  0  0  0  0  0
    8.6120   -0.8232   -0.1245 C   0  0  0  0  0  0  0  0  0  0  0  0
    5.0826    2.1309   -0.3237 H   0  0  0  0  0  0  0  0  0  0  0  0
   10.1858   -1.8526    0.4388 H   0  0  0  0  0  0  0  0  0  0  0  0
    5.6956    2.0474    0.4194 O   0  0  0  0  0  0  0  0  0  0  0  0
    9.5725   -1.7689   -0.3041 O   0  0  0  0  0  0  0  0  0  0  0  0
   -7.3146    2.2145   -0.8352 H   0  0  0  0  0  0  0  0  0  0  0  0
   -9.9604   -0.8225    1.0067 H   0  0  0  0  0  0  0  0  0  0  0  0
   -5.5914    0.5395   -1.1215 H   0  0  0  0  0  0  0  0  0  0  0  0
   -8.2374   -2.4975    0.7200 H   0  0  0  0  0  0  0  0  0  0  0  0
  5  7  2  0  0  0  0
  6  8  2  0  0  0  0
 17 21  1  0  0  0  0
 18 22  1  0  0  0  0
  7 13  1  0  0  0  0
  7 14  1  0  0  0  0
  8 15  1  0  0  0  0
  8 16  1  0  0  0  0
  9 17  2  0  0  0  0
 11 17  1  0  0  0  0
 10 18  2  0  0  0  0
 12 18  1  0  0  0  0
 13 15  2  0  0  0  0
 14 16  2  0  0  0  0
  9 10  1  0  0  0  0
 11 12  2  0  0  0  0
 19 21  1  0  0  0  0
 20 22  1  0  0  0  0
 13 23  1  0  0  0  0
 14 24  1  0  0  0  0
 15 25  1  0  0  0  0
 16 26  1  0  0  0  0
  1  9  1  0  0  0  0
  2 10  1  0  0  0  0
  3 11  1  0  0  0  0
  4 12  1  0  0  0  0
M  END
$$$$
