C6H4O2
APtclcactv12211716503D 0   0.00000     0.00000
 
 12 12  0  0  0  0  0  0  0  0999 V2000
   -2.6230    0.0000   -0.0014 O   0  0  0  0  0  0  0  0  0  0  0  0
    2.6230   -0.0000   -0.0013 O   0  0  0  0  0  0  0  0  0  0  0  0
   -1.4086    0.0000   -0.0015 C   0  0  0  0  0  0  0  0  0  0  0  0
    1.4086    0.0000   -0.0015 C   0  0  0  0  0  0  0  0  0  0  0  0
   -0.6701    1.2792    0.0015 C   0  0  0  0  0  0  0  0  0  0  0  0
   -0.6701   -1.2792    0.0014 C   0  0  0  0  0  0  0  0  0  0  0  0
    0.6701    1.2792    0.0013 C   0  0  0  0  0  0  0  0  0  0  0  0
    0.6700   -1.2792    0.0012 C   0  0  0  0  0  0  0  0  0  0  0  0
   -1.2101    2.2145    0.0035 H   0  0  0  0  0  0  0  0  0  0  0  0
   -1.2101   -2.2145    0.0040 H   0  0  0  0  0  0  0  0  0  0  0  0
    1.2101    2.2145    0.0035 H   0  0  0  0  0  0  0  0  0  0  0  0
    1.2100   -2.2145    0.0037 H   0  0  0  0  0  0  0  0  0  0  0  0
  1  3  2  0  0  0  0
  3  5  1  0  0  0  0
  3  6  1  0  0  0  0
  5  7  2  0  0  0  0
  6  8  2  0  0  0  0
  4  7  1  0  0  0  0
  4  8  1  0  0  0  0
  2  4  2  0  0  0  0
  5  9  1  0  0  0  0
  6 10  1  0  0  0  0
  7 11  1  0  0  0  0
  8 12  1  0  0  0  0
M  END
$$$$
