C7H5NO4
APtclcactv12151716133D 0   0.00000     0.00000
 
 17 17  0  0  0  0  0  0  0  0999 V2000
    1.1650   -1.6520   -0.0783 N   0  0  0  0  0  0  0  0  0  0  0  0
    0.1856   -0.7607   -0.0505 C   0  0  0  0  0  0  0  0  0  0  0  0
   -1.2249   -1.2144   -0.0962 C   0  0  0  0  0  0  0  0  0  0  0  0
   -1.8625   -1.1117   -1.1242 O   0  0  0  0  0  0  0  0  0  0  0  0
   -1.7990   -1.7403    1.0025 O   0  0  0  0  0  0  0  0  0  0  0  0
    0.4756    0.6121    0.0225 C   0  0  0  0  0  0  0  0  0  0  0  0
   -0.6143    1.6111    0.0547 C   0  0  0  0  0  0  0  0  0  0  0  0
   -1.7708    1.2462    0.1193 O   0  0  0  0  0  0  0  0  0  0  0  0
   -0.3243    2.9258    0.0122 O   0  0  0  0  0  0  0  0  0  0  0  0
    1.8136    1.0167    0.0645 C   0  0  0  0  0  0  0  0  0  0  0  0
    2.7968    0.0416    0.0323 C   0  0  0  0  0  0  0  0  0  0  0  0
    2.4311   -1.2930   -0.0396 C   0  0  0  0  0  0  0  0  0  0  0  0
   -2.7207   -2.0220    0.9242 H   0  0  0  0  0  0  0  0  0  0  0  0
   -1.0701    3.5409    0.0358 H   0  0  0  0  0  0  0  0  0  0  0  0
    2.0738    2.0633    0.1205 H   0  0  0  0  0  0  0  0  0  0  0  0
    3.8400    0.3193    0.0628 H   0  0  0  0  0  0  0  0  0  0  0  0
    3.1986   -2.0524   -0.0643 H   0  0  0  0  0  0  0  0  0  0  0  0
  1  2  2  0  0  0  0
  2  3  1  0  0  0  0
  3  4  2  0  0  0  0
  3  5  1  0  0  0  0
  2  6  1  0  0  0  0
  6  7  1  0  0  0  0
  7  8  2  0  0  0  0
  7  9  1  0  0  0  0
  6 10  2  0  0  0  0
 10 11  1  0  0  0  0
 11 12  2  0  0  0  0
  1 12  1  0  0  0  0
  5 13  1  0  0  0  0
  9 14  1  0  0  0  0
 10 15  1  0  0  0  0
 11 16  1  0  0  0  0
 12 17  1  0  0  0  0
M  END
$$$$
