C14H18N2O3
APtclcactv12211717023D 0   0.00000     0.00000
 
 37 39  0  0  0  0  0  0  0  0999 V2000
    0.6603    2.0916    0.4576 C   0  0  0  0  0  0  0  0  0  0  0  0
    2.1107    2.5027    0.7185 C   0  0  0  0  0  0  0  0  0  0  0  0
    2.9216   -0.5694   -2.0243 H   0  0  0  0  0  0  0  0  0  0  0  0
    2.5052   -1.5172    1.8303 H   0  0  0  0  0  0  0  0  0  0  0  0
    1.0593    1.0201   -2.2218 O   0  0  0  0  0  0  0  0  0  0  0  0
    0.5585   -0.1131    2.3523 O   0  0  0  0  0  0  0  0  0  0  0  0
    3.7316   -1.8489   -0.1851 O   0  0  0  0  0  0  0  0  0  0  0  0
    1.3757    0.4245   -1.2144 C   0  0  0  0  0  0  0  0  0  0  0  0
    1.1032   -0.1919    1.2721 C   0  0  0  0  0  0  0  0  0  0  0  0
    2.7805   -1.0976   -0.1031 C   0  0  0  0  0  0  0  0  0  0  0  0
   -1.1220   -1.1574   -0.6256 C   0  0  0  0  0  0  0  0  0  0  0  0
   -3.2782   -0.1690   -1.3426 C   0  0  0  0  0  0  0  0  0  0  0  0
   -3.6382    0.0261    1.0542 C   0  0  0  0  0  0  0  0  0  0  0  0
   -3.2042   -1.4201    0.7513 C   0  0  0  0  0  0  0  0  0  0  0  0
    0.6100    0.6093    0.0821 C   0  0  0  0  0  0  0  0  0  0  0  0
    2.4191   -0.4321   -1.2061 N   0  0  0  0  0  0  0  0  0  0  0  0
    2.1715   -0.9954    1.0838 N   0  0  0  0  0  0  0  0  0  0  0  0
   -3.2027    0.8586   -0.1805 C   0  0  0  0  0  0  0  0  0  0  0  0
   -2.6314   -1.4144   -0.6790 C   0  0  0  0  0  0  0  0  0  0  0  0
   -0.8298    0.2406   -0.1671 C   0  0  0  0  0  0  0  0  0  0  0  0
   -1.7296    1.1555    0.0299 C   0  0  0  0  0  0  0  0  0  0  0  0
    0.0678    2.2589    1.3570 H   0  0  0  0  0  0  0  0  0  0  0  0
    0.2553    2.6875   -0.3603 H   0  0  0  0  0  0  0  0  0  0  0  0
   -1.4253    2.1419    0.3476 H   0  0  0  0  0  0  0  0  0  0  0  0
   -0.6629   -1.8640    0.0657 H   0  0  0  0  0  0  0  0  0  0  0  0
   -0.6987   -1.3039   -1.6194 H   0  0  0  0  0  0  0  0  0  0  0  0
   -3.8029    1.7522   -0.3524 H   0  0  0  0  0  0  0  0  0  0  0  0
   -2.8637   -2.3288   -1.2249 H   0  0  0  0  0  0  0  0  0  0  0  0
   -4.3122   -0.3670   -1.6250 H   0  0  0  0  0  0  0  0  0  0  0  0
   -2.6957    0.1655   -2.2010 H   0  0  0  0  0  0  0  0  0  0  0  0
   -4.7197    0.0765    1.1804 H   0  0  0  0  0  0  0  0  0  0  0  0
   -3.1362    0.3903    1.9505 H   0  0  0  0  0  0  0  0  0  0  0  0
   -2.4383   -1.7366    1.4594 H   0  0  0  0  0  0  0  0  0  0  0  0
   -4.0640   -2.0878    0.8069 H   0  0  0  0  0  0  0  0  0  0  0  0
    2.5157    1.9068    1.5364 H   0  0  0  0  0  0  0  0  0  0  0  0
    2.7032    2.3354   -0.1810 H   0  0  0  0  0  0  0  0  0  0  0  0
    2.1466    3.5588    0.9860 H   0  0  0  0  0  0  0  0  0  0  0  0
  5  8  2  0  0  0  0
  6  9  2  0  0  0  0
  7 10  2  0  0  0  0
  8 16  1  0  0  0  0
 10 16  1  0  0  0  0
  9 17  1  0  0  0  0
 10 17  1  0  0  0  0
 15 20  1  0  0  0  0
  8 15  1  0  0  0  0
  9 15  1  0  0  0  0
  1 15  1  0  0  0  0
 20 21  2  0  0  0  0
 11 20  1  0  0  0  0
  1  2  1  0  0  0  0
 18 21  1  0  0  0  0
 11 19  1  0  0  0  0
 12 18  1  0  0  0  0
 13 18  1  0  0  0  0
 12 19  1  0  0  0  0
 14 19  1  0  0  0  0
 13 14  1  0  0  0  0
  3 16  1  0  0  0  0
  4 17  1  0  0  0  0
  1 22  1  0  0  0  0
  1 23  1  0  0  0  0
 21 24  1  0  0  0  0
 11 25  1  0  0  0  0
 11 26  1  0  0  0  0
 18 27  1  0  0  0  0
 19 28  1  0  0  0  0
 12 29  1  0  0  0  0
 12 30  1  0  0  0  0
 13 31  1  0  0  0  0
 13 32  1  0  0  0  0
 14 33  1  0  0  0  0
 14 34  1  0  0  0  0
  2 35  1  0  0  0  0
  2 36  1  0  0  0  0
  2 37  1  0  0  0  0
M  END
$$$$
