C6H12O5
APtclcactv12211716583D 0   0.00000     0.00000
 
 23 22  0  0  1  0  0  0  0  0999 V2000
   -3.6278    0.4433    0.4583 O   0  0  0  0  0  0  0  0  0  0  0  0
   -2.7446    0.4200   -0.3650 C   0  0  0  0  0  0  0  0  0  0  0  0
   -1.5394   -0.4593   -0.1524 C   0  0  2  0  0  0  0  0  0  0  0  0
   -1.4637   -1.1760   -0.9702 H   0  0  0  0  0  0  0  0  0  0  0  0
   -1.6740   -1.1611    1.0851 O   0  0  0  0  0  0  0  0  0  0  0  0
   -0.2777    0.4053   -0.1137 C   0  0  2  0  0  0  0  0  0  0  0  0
   -0.3534    1.1220    0.7041 H   0  0  0  0  0  0  0  0  0  0  0  0
   -0.1431    1.1071   -1.3512 O   0  0  0  0  0  0  0  0  0  0  0  0
    0.9460   -0.4874    0.1021 C   0  0  1  0  0  0  0  0  0  0  0  0
    0.8862   -0.9544    1.0852 H   0  0  0  0  0  0  0  0  0  0  0  0
    0.9801   -1.5004   -0.9052 O   0  0  0  0  0  0  0  0  0  0  0  0
    2.2170    0.3600    0.0165 C   0  0  1  0  0  0  0  0  0  0  0  0
    2.2768    0.8270   -0.9665 H   0  0  0  0  0  0  0  0  0  0  0  0
    2.1828    1.3730    1.0238 O   0  0  0  0  0  0  0  0  0  0  0  0
    3.4406   -0.5327    0.2323 C   0  0  0  0  0  0  0  0  0  0  0  0
   -2.8207    1.0259   -1.2557 H   0  0  0  0  0  0  0  0  0  0  0  0
   -1.7467   -0.5848    1.8582 H   0  0  0  0  0  0  0  0  0  0  0  0
   -0.0704    0.5308   -2.1243 H   0  0  0  0  0  0  0  0  0  0  0  0
    1.0335   -1.1564   -1.8073 H   0  0  0  0  0  0  0  0  0  0  0  0
    2.9592    1.9494    1.0285 H   0  0  0  0  0  0  0  0  0  0  0  0
    3.3808   -0.9997    1.2154 H   0  0  0  0  0  0  0  0  0  0  0  0
    3.4667   -1.3054   -0.5360 H   0  0  0  0  0  0  0  0  0  0  0  0
    4.3461    0.0710    0.1713 H   0  0  0  0  0  0  0  0  0  0  0  0
  1  2  2  0  0  0  0
  2  3  1  0  0  0  0
  3  4  1  0  0  0  0
  3  5  1  0  0  0  0
  3  6  1  0  0  0  0
  6  7  1  0  0  0  0
  6  8  1  0  0  0  0
  6  9  1  0  0  0  0
  9 10  1  0  0  0  0
  9 11  1  0  0  0  0
  9 12  1  0  0  0  0
 12 13  1  0  0  0  0
 12 14  1  0  0  0  0
 12 15  1  0  0  0  0
  2 16  1  0  0  0  0
  5 17  1  0  0  0  0
  8 18  1  0  0  0  0
 11 19  1  0  0  0  0
 14 20  1  0  0  0  0
 15 21  1  0  0  0  0
 15 22  1  0  0  0  0
 15 23  1  0  0  0  0
M  END
$$$$
