C3H3NOS2
APtclcactv12101715353D 0   0.00000     0.00000
 
 10 10  0  0  0  0  0  0  0  0999 V2000
   -0.0754    1.5097   -0.0001 S   0  0  0  0  0  0  0  0  0  0  0  0
   -0.7286   -0.1384    0.0000 C   0  0  0  0  0  0  0  0  0  0  0  0
   -2.3858   -0.5682   -0.0000 S   0  0  0  0  0  0  0  0  0  0  0  0
    0.3042   -0.9837    0.0002 N   0  0  0  0  0  0  0  0  0  0  0  0
    1.5513   -0.5435    0.0002 C   0  0  0  0  0  0  0  0  0  0  0  0
    2.5138   -1.2809   -0.0003 O   0  0  0  0  0  0  0  0  0  0  0  0
    1.6662    0.9652    0.0001 C   0  0  0  0  0  0  0  0  0  0  0  0
    0.1370   -1.9392    0.0006 H   0  0  0  0  0  0  0  0  0  0  0  0
    2.1788    1.3126   -0.8969 H   0  0  0  0  0  0  0  0  0  0  0  0
    2.1786    1.3127    0.8972 H   0  0  0  0  0  0  0  0  0  0  0  0
  1  2  1  0  0  0  0
  2  3  2  0  0  0  0
  2  4  1  0  0  0  0
  4  5  1  0  0  0  0
  5  6  2  0  0  0  0
  5  7  1  0  0  0  0
  1  7  1  0  0  0  0
  4  8  1  0  0  0  0
  7  9  1  0  0  0  0
  7 10  1  0  0  0  0
M  END
$$$$
