C8H8N2O2
APtclcactv12151716283D 0   0.00000     0.00000
 
 20 20  0  0  0  0  0  0  0  0999 V2000
   -2.9771   -1.3656   -0.6701 C   0  0  0  0  0  0  0  0  0  0  0  0
    3.2899   -0.4678   -0.1669 C   0  0  0  0  0  0  0  0  0  0  0  0
    1.7037    1.6980   -0.1732 O   0  0  0  0  0  0  0  0  0  0  0  0
   -2.2555   -0.7228    0.3826 O   0  0  0  0  0  0  0  0  0  0  0  0
   -0.2798    0.5964    0.0971 C   0  0  0  0  0  0  0  0  0  0  0  0
   -0.9121   -0.6458    0.2480 C   0  0  0  0  0  0  0  0  0  0  0  0
    1.1290    0.6309   -0.0402 C   0  0  0  0  0  0  0  0  0  0  0  0
   -0.1247   -1.8087    0.2573 C   0  0  0  0  0  0  0  0  0  0  0  0
    1.2178   -1.7179    0.1223 C   0  0  0  0  0  0  0  0  0  0  0  0
   -1.0449    1.8068    0.0763 C   0  0  0  0  0  0  0  0  0  0  0  0
    1.8327   -0.5165   -0.0240 N   0  0  0  0  0  0  0  0  0  0  0  0
   -1.6517    2.7669    0.0598 N   0  0  0  0  0  0  0  0  0  0  0  0
   -0.5915   -2.7758    0.3727 H   0  0  0  0  0  0  0  0  0  0  0  0
    1.8127   -2.6192    0.1314 H   0  0  0  0  0  0  0  0  0  0  0  0
   -2.6333   -2.3951   -0.7703 H   0  0  0  0  0  0  0  0  0  0  0  0
   -4.0419   -1.3592   -0.4372 H   0  0  0  0  0  0  0  0  0  0  0  0
   -2.8065   -0.8329   -1.6056 H   0  0  0  0  0  0  0  0  0  0  0  0
    3.7489   -0.3815    0.8180 H   0  0  0  0  0  0  0  0  0  0  0  0
    3.6381   -1.3800   -0.6513 H   0  0  0  0  0  0  0  0  0  0  0  0
    3.5668    0.3943   -0.7737 H   0  0  0  0  0  0  0  0  0  0  0  0
  5  6  2  0  0  0  0
  5  7  1  0  0  0  0
  5 10  1  0  0  0  0
  6  8  1  0  0  0  0
  4  6  1  0  0  0  0
  7 11  1  0  0  0  0
  3  7  2  0  0  0  0
 10 12  3  0  0  0  0
  8  9  2  0  0  0  0
  1  4  1  0  0  0  0
  2 11  1  0  0  0  0
  9 11  1  0  0  0  0
  8 13  1  0  0  0  0
  9 14  1  0  0  0  0
  1 15  1  0  0  0  0
  1 16  1  0  0  0  0
  1 17  1  0  0  0  0
  2 18  1  0  0  0  0
  2 19  1  0  0  0  0
  2 20  1  0  0  0  0
M  END
$$$$
