C7H17O2PS3
APtclcactv12151716243D 0   0.00000     0.00000
 
 30 29  0  0  0  0  0  0  0  0999 V2000
    0.4113   -0.8094    1.4039 C   0  0  0  0  0  0  0  0  0  0  0  0
    1.3477    0.1272    0.6378 C   0  0  0  0  0  0  0  0  0  0  0  0
   -1.4946   -2.5508   -0.8955 C   0  0  0  0  0  0  0  0  0  0  0  0
   -3.5713    2.1915   -0.0916 C   0  0  0  0  0  0  0  0  0  0  0  0
    4.1573    1.7172    0.3337 C   0  0  0  0  0  0  0  0  0  0  0  0
    5.2024   -0.0821   -1.0493 C   0  0  0  0  0  0  0  0  0  0  0  0
   -2.4894   -1.6155   -0.4739 O   0  0  0  0  0  0  0  0  0  0  0  0
   -3.5305    0.7633   -0.0627 O   0  0  0  0  0  0  0  0  0  0  0  0
    3.8775    0.5280   -0.5874 C   0  0  0  0  0  0  0  0  0  0  0  0
   -2.1589   -0.0764   -0.1363 P   0  0  0  0  0  0  0  0  0  0  0  0
   -1.1587    0.0388    1.7294 S   0  0  0  0  0  0  0  0  0  0  0  0
    2.9178   -0.7211    0.3123 S   0  0  0  0  0  0  0  0  0  0  0  0
   -1.0678    0.6318   -1.4708 S   0  0  0  0  0  0  0  0  0  0  0  0
   -0.9587   -2.1484   -1.7551 H   0  0  0  0  0  0  0  0  0  0  0  0
   -0.7931   -2.7273   -0.0801 H   0  0  0  0  0  0  0  0  0  0  0  0
   -1.9732   -3.4900   -1.1727 H   0  0  0  0  0  0  0  0  0  0  0  0
   -3.0095    2.5881    0.7541 H   0  0  0  0  0  0  0  0  0  0  0  0
   -3.1288    2.5489   -1.0214 H   0  0  0  0  0  0  0  0  0  0  0  0
   -4.6066    2.5267   -0.0294 H   0  0  0  0  0  0  0  0  0  0  0  0
    0.2247   -1.7033    0.8086 H   0  0  0  0  0  0  0  0  0  0  0  0
    0.8742   -1.0925    2.3492 H   0  0  0  0  0  0  0  0  0  0  0  0
    0.8849    0.4103   -0.3075 H   0  0  0  0  0  0  0  0  0  0  0  0
    1.5343    1.0210    1.2331 H   0  0  0  0  0  0  0  0  0  0  0  0
    3.3110    0.8659   -1.4551 H   0  0  0  0  0  0  0  0  0  0  0  0
    4.7238    1.3793    1.2014 H   0  0  0  0  0  0  0  0  0  0  0  0
    4.7339    2.4677   -0.2069 H   0  0  0  0  0  0  0  0  0  0  0  0
    3.2134    2.1518    0.6628 H   0  0  0  0  0  0  0  0  0  0  0  0
    5.0031   -0.9293   -1.7055 H   0  0  0  0  0  0  0  0  0  0  0  0
    5.7791    0.6684   -1.5899 H   0  0  0  0  0  0  0  0  0  0  0  0
    5.7689   -0.4200   -0.1816 H   0  0  0  0  0  0  0  0  0  0  0  0
  3  7  1  0  0  0  0
  7 10  1  0  0  0  0
 10 13  2  0  0  0  0
  8 10  1  0  0  0  0
  4  8  1  0  0  0  0
 10 11  1  0  0  0  0
  1 11  1  0  0  0  0
  1  2  1  0  0  0  0
  2 12  1  0  0  0  0
  9 12  1  0  0  0  0
  5  9  1  0  0  0  0
  6  9  1  0  0  0  0
  3 14  1  0  0  0  0
  3 15  1  0  0  0  0
  3 16  1  0  0  0  0
  4 17  1  0  0  0  0
  4 18  1  0  0  0  0
  4 19  1  0  0  0  0
  1 20  1  0  0  0  0
  1 21  1  0  0  0  0
  2 22  1  0  0  0  0
  2 23  1  0  0  0  0
  9 24  1  0  0  0  0
  5 25  1  0  0  0  0
  5 26  1  0  0  0  0
  5 27  1  0  0  0  0
  6 28  1  0  0  0  0
  6 29  1  0  0  0  0
  6 30  1  0  0  0  0
M  END
$$$$
