C13H21O3PS
APtclcactv12091702543D 0   0.00000     0.00000
 
 39 39  0  0  0  0  0  0  0  0999 V2000
   -1.1372    0.2480    0.1080 P   0  0  0  0  0  0  0  0  0  0  0  0
   -0.1926   -0.3629   -1.6890 S   0  0  0  0  0  0  0  0  0  0  0  0
    1.4348    0.4318   -1.5850 C   0  0  0  0  0  0  0  0  0  0  0  0
    2.2932   -0.3093   -0.5925 C   0  0  0  0  0  0  0  0  0  0  0  0
    3.0889   -1.3580   -1.0142 C   0  0  0  0  0  0  0  0  0  0  0  0
    3.8763   -2.0377   -0.1038 C   0  0  0  0  0  0  0  0  0  0  0  0
    3.8682   -1.6685    1.2283 C   0  0  0  0  0  0  0  0  0  0  0  0
    3.0731   -0.6193    1.6499 C   0  0  0  0  0  0  0  0  0  0  0  0
    2.2890    0.0633    0.7387 C   0  0  0  0  0  0  0  0  0  0  0  0
   -1.2343    1.8546    0.1440 O   0  0  0  0  0  0  0  0  0  0  0  0
   -0.0855    2.7026    0.2023 C   0  0  0  0  0  0  0  0  0  0  0  0
   -0.0631    3.6160   -1.0250 C   0  0  0  0  0  0  0  0  0  0  0  0
   -0.1448    3.5551    1.4714 C   0  0  0  0  0  0  0  0  0  0  0  0
   -2.6178   -0.3808    0.1766 O   0  0  0  0  0  0  0  0  0  0  0  0
   -2.8633   -1.7856    0.2677 C   0  0  0  0  0  0  0  0  0  0  0  0
   -3.6360   -2.0859    1.5537 C   0  0  0  0  0  0  0  0  0  0  0  0
   -3.6866   -2.2388   -0.9396 C   0  0  0  0  0  0  0  0  0  0  0  0
   -0.3464   -0.2246    1.2663 O   0  0  0  0  0  0  0  0  0  0  0  0
    1.9122    0.4115   -2.5647 H   0  0  0  0  0  0  0  0  0  0  0  0
    1.3144    1.4654   -1.2608 H   0  0  0  0  0  0  0  0  0  0  0  0
    3.0953   -1.6464   -2.0550 H   0  0  0  0  0  0  0  0  0  0  0  0
    4.4975   -2.8575   -0.4332 H   0  0  0  0  0  0  0  0  0  0  0  0
    4.4828   -2.2001    1.9397 H   0  0  0  0  0  0  0  0  0  0  0  0
    3.0665   -0.3310    2.6907 H   0  0  0  0  0  0  0  0  0  0  0  0
    1.6678    0.8831    1.0681 H   0  0  0  0  0  0  0  0  0  0  0  0
    0.8169    2.0914    0.2169 H   0  0  0  0  0  0  0  0  0  0  0  0
   -0.0208    3.0086   -1.9292 H   0  0  0  0  0  0  0  0  0  0  0  0
   -0.9655    4.2271   -1.0397 H   0  0  0  0  0  0  0  0  0  0  0  0
    0.8132    4.2628   -0.9806 H   0  0  0  0  0  0  0  0  0  0  0  0
   -0.1608    2.9044    2.3457 H   0  0  0  0  0  0  0  0  0  0  0  0
    0.7314    4.2019    1.5158 H   0  0  0  0  0  0  0  0  0  0  0  0
   -1.0472    4.1663    1.4567 H   0  0  0  0  0  0  0  0  0  0  0  0
   -1.9136   -2.3203    0.2813 H   0  0  0  0  0  0  0  0  0  0  0  0
   -4.5858   -1.5512    1.5401 H   0  0  0  0  0  0  0  0  0  0  0  0
   -3.8233   -3.1574    1.6232 H   0  0  0  0  0  0  0  0  0  0  0  0
   -3.0495   -1.7630    2.4138 H   0  0  0  0  0  0  0  0  0  0  0  0
   -3.1361   -2.0249   -1.8558 H   0  0  0  0  0  0  0  0  0  0  0  0
   -3.8739   -3.3104   -0.8701 H   0  0  0  0  0  0  0  0  0  0  0  0
   -4.6363   -1.7041   -0.9532 H   0  0  0  0  0  0  0  0  0  0  0  0
  1  2  1  0  0  0  0
  2  3  1  0  0  0  0
  3  4  1  0  0  0  0
  4  5  2  0  0  0  0
  5  6  1  0  0  0  0
  6  7  2  0  0  0  0
  7  8  1  0  0  0  0
  8  9  2  0  0  0  0
  4  9  1  0  0  0  0
  1 10  1  0  0  0  0
 10 11  1  0  0  0  0
 11 12  1  0  0  0  0
 11 13  1  0  0  0  0
  1 14  1  0  0  0  0
 14 15  1  0  0  0  0
 15 16  1  0  0  0  0
 15 17  1  0  0  0  0
  1 18  2  0  0  0  0
  3 19  1  0  0  0  0
  3 20  1  0  0  0  0
  5 21  1  0  0  0  0
  6 22  1  0  0  0  0
  7 23  1  0  0  0  0
  8 24  1  0  0  0  0
  9 25  1  0  0  0  0
 11 26  1  0  0  0  0
 12 27  1  0  0  0  0
 12 28  1  0  0  0  0
 12 29  1  0  0  0  0
 13 30  1  0  0  0  0
 13 31  1  0  0  0  0
 13 32  1  0  0  0  0
 15 33  1  0  0  0  0
 16 34  1  0  0  0  0
 16 35  1  0  0  0  0
 16 36  1  0  0  0  0
 17 37  1  0  0  0  0
 17 38  1  0  0  0  0
 17 39  1  0  0  0  0
M  END
$$$$
