C16H25NOS
APtclcactv12211717143D 0   0.00000     0.00000
 
 44 44  0  0  0  0  0  0  0  0999 V2000
    2.1923   -1.1845    1.0691 C   0  0  0  0  0  0  0  0  0  0  0  0
    1.4857   -0.6641    2.3224 C   0  0  0  0  0  0  0  0  0  0  0  0
    1.4408   -2.4027    0.5286 C   0  0  0  0  0  0  0  0  0  0  0  0
    2.2249   -3.0101   -0.6363 C   0  0  0  0  0  0  0  0  0  0  0  0
    2.2152   -0.1329    0.0493 N   0  0  0  0  0  0  0  0  0  0  0  0
    1.0614    0.4184   -0.3763 C   0  0  0  0  0  0  0  0  0  0  0  0
   -0.4808   -0.2179    0.1906 S   0  0  0  0  0  0  0  0  0  0  0  0
   -1.6173    0.8822   -0.6894 C   0  0  0  0  0  0  0  0  0  0  0  0
   -3.0381    0.5142   -0.3476 C   0  0  0  0  0  0  0  0  0  0  0  0
   -3.6655    1.1083    0.7315 C   0  0  0  0  0  0  0  0  0  0  0  0
   -4.9688    0.7708    1.0450 C   0  0  0  0  0  0  0  0  0  0  0  0
   -5.6449   -0.1606    0.2792 C   0  0  0  0  0  0  0  0  0  0  0  0
   -5.0179   -0.7540   -0.8003 C   0  0  0  0  0  0  0  0  0  0  0  0
   -3.7160   -0.4133   -1.1165 C   0  0  0  0  0  0  0  0  0  0  0  0
    1.0846    1.3551   -1.1517 O   0  0  0  0  0  0  0  0  0  0  0  0
    3.4925    0.3194   -0.5078 C   0  0  0  0  0  0  0  0  0  0  0  0
    3.4631    0.1782   -2.0310 C   0  0  0  0  0  0  0  0  0  0  0  0
    3.7203    1.7860   -0.1359 C   0  0  0  0  0  0  0  0  0  0  0  0
    3.8933    1.9069    1.3795 C   0  0  0  0  0  0  0  0  0  0  0  0
    3.2139   -1.4697    1.3199 H   0  0  0  0  0  0  0  0  0  0  0  0
    1.3896   -1.4724    3.0474 H   0  0  0  0  0  0  0  0  0  0  0  0
    2.0689    0.1472    2.7579 H   0  0  0  0  0  0  0  0  0  0  0  0
    0.4950   -0.2965    2.0548 H   0  0  0  0  0  0  0  0  0  0  0  0
    1.3336   -3.1442    1.3203 H   0  0  0  0  0  0  0  0  0  0  0  0
    0.4539   -2.0963    0.1817 H   0  0  0  0  0  0  0  0  0  0  0  0
    1.6896   -3.8780   -1.0214 H   0  0  0  0  0  0  0  0  0  0  0  0
    2.3321   -2.2687   -1.4280 H   0  0  0  0  0  0  0  0  0  0  0  0
    3.2118   -3.3165   -0.2894 H   0  0  0  0  0  0  0  0  0  0  0  0
   -1.4276    1.9136   -0.3923 H   0  0  0  0  0  0  0  0  0  0  0  0
   -1.4637    0.7793   -1.7636 H   0  0  0  0  0  0  0  0  0  0  0  0
   -3.1373    1.8360    1.3297 H   0  0  0  0  0  0  0  0  0  0  0  0
   -5.4587    1.2345    1.8884 H   0  0  0  0  0  0  0  0  0  0  0  0
   -6.6629   -0.4248    0.5246 H   0  0  0  0  0  0  0  0  0  0  0  0
   -5.5460   -1.4819   -1.3984 H   0  0  0  0  0  0  0  0  0  0  0  0
   -3.2261   -0.8769   -1.9599 H   0  0  0  0  0  0  0  0  0  0  0  0
    4.3014   -0.2882   -0.1021 H   0  0  0  0  0  0  0  0  0  0  0  0
    3.2034   -0.8468   -2.2959 H   0  0  0  0  0  0  0  0  0  0  0  0
    2.7200    0.8598   -2.4448 H   0  0  0  0  0  0  0  0  0  0  0  0
    4.4450    0.4208   -2.4373 H   0  0  0  0  0  0  0  0  0  0  0  0
    4.6178    2.1520   -0.6345 H   0  0  0  0  0  0  0  0  0  0  0  0
    2.8618    2.3785   -0.4520 H   0  0  0  0  0  0  0  0  0  0  0  0
    2.9958    1.5408    1.8780 H   0  0  0  0  0  0  0  0  0  0  0  0
    4.7519    1.3143    1.6955 H   0  0  0  0  0  0  0  0  0  0  0  0
    4.0556    2.9517    1.6444 H   0  0  0  0  0  0  0  0  0  0  0  0
  1  2  1  0  0  0  0
  1  3  1  0  0  0  0
  3  4  1  0  0  0  0
  1  5  1  0  0  0  0
  5  6  1  0  0  0  0
  6  7  1  0  0  0  0
  7  8  1  0  0  0  0
  8  9  1  0  0  0  0
  9 10  2  0  0  0  0
 10 11  1  0  0  0  0
 11 12  2  0  0  0  0
 12 13  1  0  0  0  0
 13 14  2  0  0  0  0
  9 14  1  0  0  0  0
  6 15  2  0  0  0  0
  5 16  1  0  0  0  0
 16 17  1  0  0  0  0
 16 18  1  0  0  0  0
 18 19  1  0  0  0  0
  1 20  1  0  0  0  0
  2 21  1  0  0  0  0
  2 22  1  0  0  0  0
  2 23  1  0  0  0  0
  3 24  1  0  0  0  0
  3 25  1  0  0  0  0
  4 26  1  0  0  0  0
  4 27  1  0  0  0  0
  4 28  1  0  0  0  0
  8 29  1  0  0  0  0
  8 30  1  0  0  0  0
 10 31  1  0  0  0  0
 11 32  1  0  0  0  0
 12 33  1  0  0  0  0
 13 34  1  0  0  0  0
 14 35  1  0  0  0  0
 16 36  1  0  0  0  0
 17 37  1  0  0  0  0
 17 38  1  0  0  0  0
 17 39  1  0  0  0  0
 18 40  1  0  0  0  0
 18 41  1  0  0  0  0
 19 42  1  0  0  0  0
 19 43  1  0  0  0  0
 19 44  1  0  0  0  0
M  END
$$$$
