C11H23NOS
APtclcactv12111704493D 0   0.00000     0.00000
 
 37 36  0  0  0  0  0  0  0  0999 V2000
    0.6088   -1.3978    1.0340 C   0  0  0  0  0  0  0  0  0  0  0  0
    0.9101   -2.1102   -0.2860 C   0  0  0  0  0  0  0  0  0  0  0  0
    1.0080   -3.6174   -0.0414 C   0  0  0  0  0  0  0  0  0  0  0  0
   -0.2130   -1.8278   -1.2859 C   0  0  0  0  0  0  0  0  0  0  0  0
    0.6330    0.0518    0.8232 N   0  0  0  0  0  0  0  0  0  0  0  0
   -0.4956    0.7011    0.4755 C   0  0  0  0  0  0  0  0  0  0  0  0
   -2.0003   -0.1933    0.2744 S   0  0  0  0  0  0  0  0  0  0  0  0
   -3.1136    1.1612   -0.1751 C   0  0  0  0  0  0  0  0  0  0  0  0
   -4.5216    0.6090   -0.4057 C   0  0  0  0  0  0  0  0  0  0  0  0
   -0.4755    1.9045    0.3005 O   0  0  0  0  0  0  0  0  0  0  0  0
    1.8841    0.7955    0.9904 C   0  0  0  0  0  0  0  0  0  0  0  0
    2.6294    0.8465   -0.3449 C   0  0  0  0  0  0  0  0  0  0  0  0
    1.8110    1.6530   -1.3552 C   0  0  0  0  0  0  0  0  0  0  0  0
    3.9915    1.5136   -0.1435 C   0  0  0  0  0  0  0  0  0  0  0  0
   -0.3766   -1.6965    1.3915 H   0  0  0  0  0  0  0  0  0  0  0  0
    1.3615   -1.6700    1.7739 H   0  0  0  0  0  0  0  0  0  0  0  0
    1.8551   -1.7453   -0.6884 H   0  0  0  0  0  0  0  0  0  0  0  0
    0.0630   -3.9823    0.3610 H   0  0  0  0  0  0  0  0  0  0  0  0
    1.2227   -4.1249   -0.9818 H   0  0  0  0  0  0  0  0  0  0  0  0
    1.8081   -3.8186    0.6710 H   0  0  0  0  0  0  0  0  0  0  0  0
   -1.1580   -2.1927   -0.8835 H   0  0  0  0  0  0  0  0  0  0  0  0
   -0.2828   -0.7541   -1.4602 H   0  0  0  0  0  0  0  0  0  0  0  0
    0.0016   -2.3354   -2.2264 H   0  0  0  0  0  0  0  0  0  0  0  0
   -3.1383    1.8940    0.6315 H   0  0  0  0  0  0  0  0  0  0  0  0
   -2.7561    1.6376   -1.0880 H   0  0  0  0  0  0  0  0  0  0  0  0
   -4.8791    0.1326    0.5072 H   0  0  0  0  0  0  0  0  0  0  0  0
   -5.1920    1.4247   -0.6764 H   0  0  0  0  0  0  0  0  0  0  0  0
   -4.4969   -0.1238   -1.2122 H   0  0  0  0  0  0  0  0  0  0  0  0
    1.6622    1.8099    1.3217 H   0  0  0  0  0  0  0  0  0  0  0  0
    2.5058    0.2980    1.7347 H   0  0  0  0  0  0  0  0  0  0  0  0
    2.7729   -0.1668   -0.7198 H   0  0  0  0  0  0  0  0  0  0  0  0
    2.3419    1.6894   -2.3065 H   0  0  0  0  0  0  0  0  0  0  0  0
    0.8406    1.1778   -1.4987 H   0  0  0  0  0  0  0  0  0  0  0  0
    1.6674    2.6664   -0.9802 H   0  0  0  0  0  0  0  0  0  0  0  0
    4.5745    0.9390    0.5763 H   0  0  0  0  0  0  0  0  0  0  0  0
    4.5224    1.5499   -1.0947 H   0  0  0  0  0  0  0  0  0  0  0  0
    3.8479    2.5269    0.2315 H   0  0  0  0  0  0  0  0  0  0  0  0
  1  2  1  0  0  0  0
  2  3  1  0  0  0  0
  2  4  1  0  0  0  0
  1  5  1  0  0  0  0
  5  6  1  0  0  0  0
  6  7  1  0  0  0  0
  7  8  1  0  0  0  0
  8  9  1  0  0  0  0
  6 10  2  0  0  0  0
  5 11  1  0  0  0  0
 11 12  1  0  0  0  0
 12 13  1  0  0  0  0
 12 14  1  0  0  0  0
  1 15  1  0  0  0  0
  1 16  1  0  0  0  0
  2 17  1  0  0  0  0
  3 18  1  0  0  0  0
  3 19  1  0  0  0  0
  3 20  1  0  0  0  0
  4 21  1  0  0  0  0
  4 22  1  0  0  0  0
  4 23  1  0  0  0  0
  8 24  1  0  0  0  0
  8 25  1  0  0  0  0
  9 26  1  0  0  0  0
  9 27  1  0  0  0  0
  9 28  1  0  0  0  0
 11 29  1  0  0  0  0
 11 30  1  0  0  0  0
 12 31  1  0  0  0  0
 13 32  1  0  0  0  0
 13 33  1  0  0  0  0
 13 34  1  0  0  0  0
 14 35  1  0  0  0  0
 14 36  1  0  0  0  0
 14 37  1  0  0  0  0
M  END
$$$$
