C9H21O3PS3
APtclcactv12151716533D 0   0.00000     0.00000
 
 37 36  0  0  0  0  0  0  0  0999 V2000
   -1.1554    0.3621    0.0767 P   0  0  0  0  0  0  0  0  0  0  0  0
   -2.6855   -0.1288    0.1750 O   0  0  0  0  0  0  0  0  0  0  0  0
   -3.0669   -1.5047    0.1153 C   0  0  0  0  0  0  0  0  0  0  0  0
   -3.8947   -1.8587    1.3523 C   0  0  0  0  0  0  0  0  0  0  0  0
   -3.9014   -1.7484   -1.1437 C   0  0  0  0  0  0  0  0  0  0  0  0
   -1.1171    1.9500   -0.1868 O   0  0  0  0  0  0  0  0  0  0  0  0
    0.0621    2.7390   -0.0162 C   0  0  0  0  0  0  0  0  0  0  0  0
    0.4268    3.4047   -1.3446 C   0  0  0  0  0  0  0  0  0  0  0  0
   -0.1931    3.8155    1.0407 C   0  0  0  0  0  0  0  0  0  0  0  0
   -0.2753   -0.0241    1.6732 S   0  0  0  0  0  0  0  0  0  0  0  0
   -0.1922   -0.6429   -1.5222 S   0  0  0  0  0  0  0  0  0  0  0  0
    1.5320   -0.1016   -1.3649 C   0  0  0  0  0  0  0  0  0  0  0  0
    2.3200   -0.9850    0.0097 S   0  0  0  0  0  0  0  0  0  0  0  0
    2.3586   -2.3754   -0.2809 O   0  0  0  0  0  0  0  0  0  0  0  0
    4.0077   -0.3199    0.0080 C   0  0  0  0  0  0  0  0  0  0  0  0
    4.8155   -0.9759    1.1296 C   0  0  0  0  0  0  0  0  0  0  0  0
   -2.1734   -2.1284    0.0853 H   0  0  0  0  0  0  0  0  0  0  0  0
   -4.7881   -1.2350    1.3823 H   0  0  0  0  0  0  0  0  0  0  0  0
   -4.1855   -2.9082    1.3068 H   0  0  0  0  0  0  0  0  0  0  0  0
   -3.3001   -1.6850    2.2493 H   0  0  0  0  0  0  0  0  0  0  0  0
   -4.7948   -1.1248   -1.1137 H   0  0  0  0  0  0  0  0  0  0  0  0
   -3.3117   -1.4963   -2.0250 H   0  0  0  0  0  0  0  0  0  0  0  0
   -4.1922   -2.7979   -1.1893 H   0  0  0  0  0  0  0  0  0  0  0  0
    0.8834    2.0996    0.3074 H   0  0  0  0  0  0  0  0  0  0  0  0
   -0.3945    4.0441   -1.6681 H   0  0  0  0  0  0  0  0  0  0  0  0
    1.3263    4.0066   -1.2144 H   0  0  0  0  0  0  0  0  0  0  0  0
    0.6086    2.6378   -2.0975 H   0  0  0  0  0  0  0  0  0  0  0  0
   -1.0144    4.4548    0.7171 H   0  0  0  0  0  0  0  0  0  0  0  0
   -0.4530    3.3411    1.9870 H   0  0  0  0  0  0  0  0  0  0  0  0
    0.7063    4.4173    1.1708 H   0  0  0  0  0  0  0  0  0  0  0  0
    2.0666   -0.3179   -2.2898 H   0  0  0  0  0  0  0  0  0  0  0  0
    1.5600    0.9707   -1.1713 H   0  0  0  0  0  0  0  0  0  0  0  0
    4.4804   -0.5307   -0.9513 H   0  0  0  0  0  0  0  0  0  0  0  0
    3.9737    0.7578    0.1673 H   0  0  0  0  0  0  0  0  0  0  0  0
    4.3429   -0.7651    2.0890 H   0  0  0  0  0  0  0  0  0  0  0  0
    4.8495   -2.0537    0.9704 H   0  0  0  0  0  0  0  0  0  0  0  0
    5.8296   -0.5764    1.1286 H   0  0  0  0  0  0  0  0  0  0  0  0
  1  2  1  0  0  0  0
  2  3  1  0  0  0  0
  3  4  1  0  0  0  0
  3  5  1  0  0  0  0
  1  6  1  0  0  0  0
  6  7  1  0  0  0  0
  7  8  1  0  0  0  0
  7  9  1  0  0  0  0
  1 10  2  0  0  0  0
  1 11  1  0  0  0  0
 11 12  1  0  0  0  0
 12 13  1  0  0  0  0
 13 14  2  0  0  0  0
 13 15  1  0  0  0  0
 15 16  1  0  0  0  0
  3 17  1  0  0  0  0
  4 18  1  0  0  0  0
  4 19  1  0  0  0  0
  4 20  1  0  0  0  0
  5 21  1  0  0  0  0
  5 22  1  0  0  0  0
  5 23  1  0  0  0  0
  7 24  1  0  0  0  0
  8 25  1  0  0  0  0
  8 26  1  0  0  0  0
  8 27  1  0  0  0  0
  9 28  1  0  0  0  0
  9 29  1  0  0  0  0
  9 30  1  0  0  0  0
 12 31  1  0  0  0  0
 12 32  1  0  0  0  0
 15 33  1  0  0  0  0
 15 34  1  0  0  0  0
 16 35  1  0  0  0  0
 16 36  1  0  0  0  0
 16 37  1  0  0  0  0
M  END
$$$$
