C3H6O3
APtclcactv12101715373D 0   0.00000     0.00000
 
 12 12  0  0  0  0  0  0  0  0999 V2000
    0.7097   -1.1856    0.2095 C   0  0  0  0  0  0  0  0  0  0  0  0
   -1.3816   -0.0218    0.2095 C   0  0  0  0  0  0  0  0  0  0  0  0
    0.6719    1.2074    0.2095 C   0  0  0  0  0  0  0  0  0  0  0  0
   -0.6542   -1.1755   -0.2250 O   0  0  0  0  0  0  0  0  0  0  0  0
    1.3451    0.0212   -0.2250 O   0  0  0  0  0  0  0  0  0  0  0  0
   -0.6910    1.1543   -0.2250 O   0  0  0  0  0  0  0  0  0  0  0  0
    0.7457   -1.2457    1.2972 H   0  0  0  0  0  0  0  0  0  0  0  0
    1.2238   -2.0444   -0.2222 H   0  0  0  0  0  0  0  0  0  0  0  0
   -2.3824   -0.0376   -0.2222 H   0  0  0  0  0  0  0  0  0  0  0  0
   -1.4517   -0.0229    1.2972 H   0  0  0  0  0  0  0  0  0  0  0  0
    0.7060    1.2687    1.2972 H   0  0  0  0  0  0  0  0  0  0  0  0
    1.1586    2.0820   -0.2222 H   0  0  0  0  0  0  0  0  0  0  0  0
  1  4  1  0  0  0  0
  1  5  1  0  0  0  0
  2  4  1  0  0  0  0
  3  5  1  0  0  0  0
  2  6  1  0  0  0  0
  3  6  1  0  0  0  0
  1  7  1  0  0  0  0
  1  8  1  0  0  0  0
  2  9  1  0  0  0  0
  2 10  1  0  0  0  0
  3 11  1  0  0  0  0
  3 12  1  0  0  0  0
M  END
$$$$
