C7H5NO3S
APtclcactv12151716133D 0   0.00000     0.00000
 
 17 18  0  0  0  0  0  0  0  0999 V2000
   -1.3687    0.6077   -0.0001 S   0  0  0  0  0  0  0  0  0  0  0  0
   -1.8068    1.1068   -1.2564 O   0  0  0  0  0  0  0  0  0  0  0  0
   -1.8116    1.1075    1.2542 O   0  0  0  0  0  0  0  0  0  0  0  0
   -1.6198   -1.0449   -0.0001 N   0  0  0  0  0  0  0  0  0  0  0  0
   -0.4001   -1.6015    0.0001 C   0  0  0  0  0  0  0  0  0  0  0  0
   -0.2629   -2.8093   -0.0002 O   0  0  0  0  0  0  0  0  0  0  0  0
    0.7656   -0.7074    0.0003 C   0  0  0  0  0  0  0  0  0  0  0  0
    2.1375   -1.0106    0.0002 C   0  0  0  0  0  0  0  0  0  0  0  0
    3.0726   -0.0005   -0.0000 C   0  0  0  0  0  0  0  0  0  0  0  0
    2.6843    1.3273   -0.0001 C   0  0  0  0  0  0  0  0  0  0  0  0
    1.3337    1.6453    0.0000 C   0  0  0  0  0  0  0  0  0  0  0  0
    0.4020    0.6530    0.0032 C   0  0  0  0  0  0  0  0  0  0  0  0
   -2.4730   -1.5065   -0.0000 H   0  0  0  0  0  0  0  0  0  0  0  0
    2.4599   -2.0413    0.0006 H   0  0  0  0  0  0  0  0  0  0  0  0
    4.1239   -0.2479    0.0002 H   0  0  0  0  0  0  0  0  0  0  0  0
    3.4274    2.1111    0.0001 H   0  0  0  0  0  0  0  0  0  0  0  0
    1.0200    2.6787   -0.0000 H   0  0  0  0  0  0  0  0  0  0  0  0
  1  2  2  0  0  0  0
  1  3  2  0  0  0  0
  1  4  1  0  0  0  0
  4  5  1  0  0  0  0
  5  6  2  0  0  0  0
  5  7  1  0  0  0  0
  7  8  2  0  0  0  0
  8  9  1  0  0  0  0
  9 10  2  0  0  0  0
 10 11  1  0  0  0  0
 11 12  2  0  0  0  0
  1 12  1  0  0  0  0
  7 12  1  0  0  0  0
  4 13  1  0  0  0  0
  8 14  1  0  0  0  0
  9 15  1  0  0  0  0
 10 16  1  0  0  0  0
 11 17  1  0  0  0  0
M  END
$$$$
