C13H21NO3
APtclcactv12091702543D 0   0.00000     0.00000
 
 38 38  0  0  0  0  0  0  0  0999 V2000
    1.6110    0.5634   -0.5247 C   0  0  0  0  0  0  0  0  0  0  0  0
    1.1515   -1.7264    0.0114 C   0  0  0  0  0  0  0  0  0  0  0  0
    2.4129   -1.8536    0.5606 C   0  0  0  0  0  0  0  0  0  0  0  0
   -1.6315   -0.0546   -0.0236 C   0  0  0  0  0  0  0  0  0  0  0  0
    3.8097    1.6219    0.0297 C   0  0  0  0  0  0  0  0  0  0  0  0
   -3.5952    1.7137    1.1068 C   0  0  0  0  0  0  0  0  0  0  0  0
   -3.9939   -0.7260    1.4694 C   0  0  0  0  0  0  0  0  0  0  0  0
   -5.3495    0.5244   -0.2163 C   0  0  0  0  0  0  0  0  0  0  0  0
   -1.0179   -2.3699   -1.1593 H   0  0  0  0  0  0  0  0  0  0  0  0
   -3.2315   -0.7553   -1.1134 H   0  0  0  0  0  0  0  0  0  0  0  0
    4.5601   -0.6793    2.0503 H   0  0  0  0  0  0  0  0  0  0  0  0
    3.7139    3.5401   -0.6126 H   0  0  0  0  0  0  0  0  0  0  0  0
    0.7509   -0.5194   -0.5307 C   0  0  0  0  0  0  0  0  0  0  0  0
    2.8731    0.4413    0.0231 C   0  0  0  0  0  0  0  0  0  0  0  0
    3.2776   -0.7690    0.5678 C   0  0  0  0  0  0  0  0  0  0  0  0
   -0.9948   -1.6116   -1.7589 O   0  0  0  0  0  0  0  0  0  0  0  0
    4.5186   -0.8915    1.1078 O   0  0  0  0  0  0  0  0  0  0  0  0
    3.1679    2.7425   -0.5820 O   0  0  0  0  0  0  0  0  0  0  0  0
   -0.6257   -0.3833   -1.1287 C   0  0  0  0  0  0  0  0  0  0  0  0
   -3.9677    0.3943    0.4276 C   0  0  0  0  0  0  0  0  0  0  0  0
   -2.9734    0.0780   -0.6065 N   0  0  0  0  0  0  0  0  0  0  0  0
    1.2973    1.5040   -0.9528 H   0  0  0  0  0  0  0  0  0  0  0  0
   -0.6232    0.4179   -1.8677 H   0  0  0  0  0  0  0  0  0  0  0  0
    0.4781   -2.5707    0.0052 H   0  0  0  0  0  0  0  0  0  0  0  0
   -1.6340   -0.8558    0.7155 H   0  0  0  0  0  0  0  0  0  0  0  0
   -1.3500    0.8822    0.4571 H   0  0  0  0  0  0  0  0  0  0  0  0
    2.7253   -2.7967    0.9843 H   0  0  0  0  0  0  0  0  0  0  0  0
    4.0734    1.8707    1.0576 H   0  0  0  0  0  0  0  0  0  0  0  0
    4.7130    1.3721   -0.5268 H   0  0  0  0  0  0  0  0  0  0  0  0
   -3.5765    2.5118    0.3646 H   0  0  0  0  0  0  0  0  0  0  0  0
   -4.3329    1.9483    1.8741 H   0  0  0  0  0  0  0  0  0  0  0  0
   -2.6107    1.6210    1.5655 H   0  0  0  0  0  0  0  0  0  0  0  0
   -3.0095   -0.8187    1.9281 H   0  0  0  0  0  0  0  0  0  0  0  0
   -4.7317   -0.4913    2.2367 H   0  0  0  0  0  0  0  0  0  0  0  0
   -4.2593   -1.6659    0.9856 H   0  0  0  0  0  0  0  0  0  0  0  0
   -5.6149   -0.4156   -0.7001 H   0  0  0  0  0  0  0  0  0  0  0  0
   -6.0872    0.7590    0.5511 H   0  0  0  0  0  0  0  0  0  0  0  0
   -5.3308    1.3225   -0.9584 H   0  0  0  0  0  0  0  0  0  0  0  0
  1 13  1  0  0  0  0
 13 19  1  0  0  0  0
  2 13  2  0  0  0  0
  1 14  2  0  0  0  0
  4 19  1  0  0  0  0
 16 19  1  0  0  0  0
  2  3  1  0  0  0  0
 14 15  1  0  0  0  0
  5 14  1  0  0  0  0
  4 21  1  0  0  0  0
 15 17  1  0  0  0  0
  5 18  1  0  0  0  0
 20 21  1  0  0  0  0
  6 20  1  0  0  0  0
  7 20  1  0  0  0  0
  8 20  1  0  0  0  0
  3 15  2  0  0  0  0
  1 22  1  0  0  0  0
 19 23  1  0  0  0  0
  2 24  1  0  0  0  0
  4 25  1  0  0  0  0
  4 26  1  0  0  0  0
  9 16  1  0  0  0  0
  3 27  1  0  0  0  0
  5 28  1  0  0  0  0
  5 29  1  0  0  0  0
 10 21  1  0  0  0  0
 11 17  1  0  0  0  0
 12 18  1  0  0  0  0
  6 30  1  0  0  0  0
  6 31  1  0  0  0  0
  6 32  1  0  0  0  0
  7 33  1  0  0  0  0
  7 34  1  0  0  0  0
  7 35  1  0  0  0  0
  8 36  1  0  0  0  0
  8 37  1  0  0  0  0
  8 38  1  0  0  0  0
M  END
$$$$
