C13H18O7
APtclcactv12091702533D 0   0.00000     0.00000
 
 38 39  0  0  1  0  0  0  0  0999 V2000
    0.4527   -0.5036    0.3314 C   0  0  2  0  0  0  0  0  0  0  0  0
    1.4115   -1.6629    0.0478 C   0  0  1  0  0  0  0  0  0  0  0  0
    2.1739    1.1177   -0.0695 C   0  0  1  0  0  0  0  0  0  0  0  0
    2.8363   -1.2390    0.4174 C   0  0  2  0  0  0  0  0  0  0  0  0
    3.2018    0.0235   -0.3693 C   0  0  2  0  0  0  0  0  0  0  0  0
   -1.5750    1.2055    0.8579 C   0  0  0  0  0  0  0  0  0  0  0  0
   -4.1843    0.6149    0.1469 C   0  0  0  0  0  0  0  0  0  0  0  0
   -2.5884    2.1003    1.1409 C   0  0  0  0  0  0  0  0  0  0  0  0
   -3.8920    1.8052    0.7862 C   0  0  0  0  0  0  0  0  0  0  0  0
    2.4978    2.3627   -0.8977 C   0  0  0  0  0  0  0  0  0  0  0  0
   -3.4935   -1.5812   -0.8350 C   0  0  0  0  0  0  0  0  0  0  0  0
    0.1382   -3.1178    0.6505 H   0  0  0  0  0  0  0  0  0  0  0  0
    3.5712   -3.1217    0.5453 H   0  0  0  0  0  0  0  0  0  0  0  0
    5.2042   -0.1750   -0.1404 H   0  0  0  0  0  0  0  0  0  0  0  0
    1.7573    4.2437   -1.0204 H   0  0  0  0  0  0  0  0  0  0  0  0
   -5.1754   -2.4608   -1.5415 H   0  0  0  0  0  0  0  0  0  0  0  0
   -1.8658    0.0099    0.2167 C   0  0  0  0  0  0  0  0  0  0  0  0
   -3.1742   -0.2835   -0.1385 C   0  0  0  0  0  0  0  0  0  0  0  0
    1.0330   -2.7978    0.8294 O   0  0  0  0  0  0  0  0  0  0  0  0
    3.7481   -2.2886    0.0874 O   0  0  0  0  0  0  0  0  0  0  0  0
    4.5020    0.4698    0.0212 O   0  0  0  0  0  0  0  0  0  0  0  0
    1.6093    3.4212   -0.5338 O   0  0  0  0  0  0  0  0  0  0  0  0
   -4.8972   -1.6500   -1.0937 O   0  0  0  0  0  0  0  0  0  0  0  0
   -0.8704   -0.8719   -0.0633 O   0  0  0  0  0  0  0  0  0  0  0  0
    0.8674    0.6474   -0.4071 O   0  0  0  0  0  0  0  0  0  0  0  0
    0.4637   -0.2750    1.3972 H   0  0  0  0  0  0  0  0  0  0  0  0
    1.3706   -1.9186   -1.0110 H   0  0  0  0  0  0  0  0  0  0  0  0
    2.2076    1.3674    0.9909 H   0  0  0  0  0  0  0  0  0  0  0  0
    2.8895   -1.0323    1.4863 H   0  0  0  0  0  0  0  0  0  0  0  0
   -0.5564    1.4383    1.1314 H   0  0  0  0  0  0  0  0  0  0  0  0
    3.1979   -0.1974   -1.4367 H   0  0  0  0  0  0  0  0  0  0  0  0
    3.5260    2.6693   -0.7059 H   0  0  0  0  0  0  0  0  0  0  0  0
    2.3779    2.1358   -1.9570 H   0  0  0  0  0  0  0  0  0  0  0  0
   -5.2031    0.3868   -0.1295 H   0  0  0  0  0  0  0  0  0  0  0  0
   -2.9476   -1.6319   -1.7771 H   0  0  0  0  0  0  0  0  0  0  0  0
   -3.1998   -2.4166   -0.1995 H   0  0  0  0  0  0  0  0  0  0  0  0
   -2.3626    3.0309    1.6403 H   0  0  0  0  0  0  0  0  0  0  0  0
   -4.6830    2.5062    1.0084 H   0  0  0  0  0  0  0  0  0  0  0  0
  1 24  1  0  0  0  0
  1 25  1  0  0  0  0
  1  2  1  0  0  0  0
 17 24  1  0  0  0  0
  3 25  1  0  0  0  0
  2  4  1  0  0  0  0
  2 19  1  0  0  0  0
 17 18  2  0  0  0  0
  6 17  1  0  0  0  0
  3  5  1  0  0  0  0
  3 10  1  0  0  0  0
  4 20  1  0  0  0  0
  7 18  1  0  0  0  0
 11 18  1  0  0  0  0
  6  8  2  0  0  0  0
  5 21  1  0  0  0  0
 10 22  1  0  0  0  0
  7  9  2  0  0  0  0
 11 23  1  0  0  0  0
  4  5  1  0  0  0  0
  8  9  1  0  0  0  0
  1 26  1  0  0  0  0
  2 27  1  0  0  0  0
  3 28  1  0  0  0  0
  4 29  1  0  0  0  0
 12 19  1  0  0  0  0
  6 30  1  0  0  0  0
  5 31  1  0  0  0  0
 10 32  1  0  0  0  0
 10 33  1  0  0  0  0
 13 20  1  0  0  0  0
  7 34  1  0  0  0  0
 11 35  1  0  0  0  0
 11 36  1  0  0  0  0
  8 37  1  0  0  0  0
 14 21  1  0  0  0  0
 15 22  1  0  0  0  0
  9 38  1  0  0  0  0
 16 23  1  0  0  0  0
M  END
$$$$
