C13H11NO2
APtclcactv12071713253D 0   0.00000     0.00000
 
 27 28  0  0  0  0  0  0  0  0999 V2000
   -0.2453    0.1828    0.1055 C   0  0  0  0  0  0  0  0  0  0  0  0
   -1.6778   -0.1564    0.0127 C   0  0  0  0  0  0  0  0  0  0  0  0
   -2.6497    0.8447    0.1488 C   0  0  0  0  0  0  0  0  0  0  0  0
   -2.2772    2.1308    0.3667 O   0  0  0  0  0  0  0  0  0  0  0  0
   -3.9934    0.5144    0.0594 C   0  0  0  0  0  0  0  0  0  0  0  0
   -4.3711   -0.7953   -0.1628 C   0  0  0  0  0  0  0  0  0  0  0  0
   -3.4140   -1.7873   -0.2979 C   0  0  0  0  0  0  0  0  0  0  0  0
   -2.0737   -1.4761   -0.2170 C   0  0  0  0  0  0  0  0  0  0  0  0
    0.0956    1.3337    0.3006 O   0  0  0  0  0  0  0  0  0  0  0  0
    0.6857   -0.7836   -0.0204 N   0  0  0  0  0  0  0  0  0  0  0  0
    2.0433   -0.4484   -0.0403 C   0  0  0  0  0  0  0  0  0  0  0  0
    2.9822   -1.3152    0.5039 C   0  0  0  0  0  0  0  0  0  0  0  0
    4.3222   -0.9815    0.4822 C   0  0  0  0  0  0  0  0  0  0  0  0
    4.7294    0.2142   -0.0806 C   0  0  0  0  0  0  0  0  0  0  0  0
    3.7971    1.0795   -0.6233 C   0  0  0  0  0  0  0  0  0  0  0  0
    2.4562    0.7493   -0.6095 C   0  0  0  0  0  0  0  0  0  0  0  0
   -2.1461    2.6446   -0.4420 H   0  0  0  0  0  0  0  0  0  0  0  0
   -4.7456    1.2823    0.1640 H   0  0  0  0  0  0  0  0  0  0  0  0
   -5.4190   -1.0475   -0.2314 H   0  0  0  0  0  0  0  0  0  0  0  0
   -3.7192   -2.8086   -0.4714 H   0  0  0  0  0  0  0  0  0  0  0  0
   -1.3309   -2.2528   -0.3233 H   0  0  0  0  0  0  0  0  0  0  0  0
    0.4140   -1.7116   -0.0972 H   0  0  0  0  0  0  0  0  0  0  0  0
    2.6647   -2.2491    0.9438 H   0  0  0  0  0  0  0  0  0  0  0  0
    5.0527   -1.6549    0.9055 H   0  0  0  0  0  0  0  0  0  0  0  0
    5.7778    0.4730   -0.0960 H   0  0  0  0  0  0  0  0  0  0  0  0
    4.1184    2.0127   -1.0617 H   0  0  0  0  0  0  0  0  0  0  0  0
    1.7286    1.4255   -1.0335 H   0  0  0  0  0  0  0  0  0  0  0  0
  1  2  1  0  0  0  0
  2  3  1  0  0  0  0
  3  4  1  0  0  0  0
  3  5  2  0  0  0  0
  5  6  1  0  0  0  0
  6  7  2  0  0  0  0
  7  8  1  0  0  0  0
  2  8  2  0  0  0  0
  1  9  2  0  0  0  0
  1 10  1  0  0  0  0
 10 11  1  0  0  0  0
 11 12  2  0  0  0  0
 12 13  1  0  0  0  0
 13 14  2  0  0  0  0
 14 15  1  0  0  0  0
 15 16  2  0  0  0  0
 11 16  1  0  0  0  0
  4 17  1  0  0  0  0
  5 18  1  0  0  0  0
  6 19  1  0  0  0  0
  7 20  1  0  0  0  0
  8 21  1  0  0  0  0
 10 22  1  0  0  0  0
 12 23  1  0  0  0  0
 13 24  1  0  0  0  0
 14 25  1  0  0  0  0
 15 26  1  0  0  0  0
 16 27  1  0  0  0  0
M  END
$$$$
