C15H18O3
APtclcactv12211717083D 0   0.00000     0.00000
 
 36 38  0  0  1  0  0  0  0  0999 V2000
   -1.3694    1.3258    0.2822 C   0  0  2  0  0  0  0  0  0  0  0  0
    0.7328   -0.0641    0.5948 C   0  0  2  0  0  0  0  0  0  0  0  0
    1.4058    0.8533   -0.4737 C   0  0  2  0  0  0  0  0  0  0  0  0
    2.8692    0.5099   -0.2015 C   0  0  2  0  0  0  0  0  0  0  0  0
   -1.3570    1.8136    1.7323 C   0  0  0  0  0  0  0  0  0  0  0  0
   -0.6742   -2.4740    0.0232 C   0  0  0  0  0  0  0  0  0  0  0  0
    3.6807    0.5335   -1.4984 C   0  0  0  0  0  0  0  0  0  0  0  0
    3.7340   -1.5876    0.6923 O   0  0  0  0  0  0  0  0  0  0  0  0
   -3.4383   -2.1202   -0.5925 O   0  0  0  0  0  0  0  0  0  0  0  0
   -0.5589    2.3315   -0.5301 C   0  0  0  0  0  0  0  0  0  0  0  0
    0.9408    2.2640   -0.1901 C   0  0  0  0  0  0  0  0  0  0  0  0
   -1.3889   -1.1478   -0.0139 C   0  0  0  0  0  0  0  0  0  0  0  0
    2.7906   -0.9092    0.3612 C   0  0  0  0  0  0  0  0  0  0  0  0
   -2.8166   -1.0986   -0.3675 C   0  0  0  0  0  0  0  0  0  0  0  0
    1.4793   -1.2845    0.4284 O   0  0  0  0  0  0  0  0  0  0  0  0
   -2.7959    1.3133   -0.1461 C   0  0  0  0  0  0  0  0  0  0  0  0
   -3.4748    0.2167   -0.4424 C   0  0  0  0  0  0  0  0  0  0  0  0
   -0.7278   -0.0397    0.2722 C   0  0  0  0  0  0  0  0  0  0  0  0
    0.8978    0.3375    1.5946 H   0  0  0  0  0  0  0  0  0  0  0  0
    1.1223    0.5423   -1.4792 H   0  0  0  0  0  0  0  0  0  0  0  0
    3.2951    1.1929    0.5334 H   0  0  0  0  0  0  0  0  0  0  0  0
   -0.6924    2.1209   -1.5912 H   0  0  0  0  0  0  0  0  0  0  0  0
   -0.9259    3.3361   -0.3199 H   0  0  0  0  0  0  0  0  0  0  0  0
    1.0929    2.4994    0.8632 H   0  0  0  0  0  0  0  0  0  0  0  0
    1.4937    2.9683   -0.8116 H   0  0  0  0  0  0  0  0  0  0  0  0
   -3.3096    2.2605   -0.2192 H   0  0  0  0  0  0  0  0  0  0  0  0
   -4.5109    0.2863   -0.7393 H   0  0  0  0  0  0  0  0  0  0  0  0
   -0.3283    1.8682    2.0885 H   0  0  0  0  0  0  0  0  0  0  0  0
   -1.8134    2.8019    1.7871 H   0  0  0  0  0  0  0  0  0  0  0  0
   -1.9205    1.1182    2.3544 H   0  0  0  0  0  0  0  0  0  0  0  0
   -0.2061   -2.6073    0.9985 H   0  0  0  0  0  0  0  0  0  0  0  0
   -1.3903   -3.2775   -0.1490 H   0  0  0  0  0  0  0  0  0  0  0  0
    0.0907   -2.4964   -0.7530 H   0  0  0  0  0  0  0  0  0  0  0  0
    3.6289    1.5281   -1.9414 H   0  0  0  0  0  0  0  0  0  0  0  0
    4.7198    0.2861   -1.2813 H   0  0  0  0  0  0  0  0  0  0  0  0
    3.2715   -0.1969   -2.1964 H   0  0  0  0  0  0  0  0  0  0  0  0
  2 15  1  0  0  0  0
 13 15  1  0  0  0  0
  8 13  2  0  0  0  0
  9 14  2  0  0  0  0
  1 18  1  0  0  0  0
  2 18  1  0  0  0  0
 12 18  2  0  0  0  0
  1 10  1  0  0  0  0
  1 16  1  0  0  0  0
  1  5  1  0  0  0  0
  2  3  1  0  0  0  0
  3  4  1  0  0  0  0
  3 11  1  0  0  0  0
 12 14  1  0  0  0  0
  6 12  1  0  0  0  0
  4 13  1  0  0  0  0
  4  7  1  0  0  0  0
 10 11  1  0  0  0  0
 16 17  2  0  0  0  0
 14 17  1  0  0  0  0
  2 19  1  0  0  0  0
  3 20  1  0  0  0  0
  4 21  1  0  0  0  0
 10 22  1  0  0  0  0
 10 23  1  0  0  0  0
 11 24  1  0  0  0  0
 11 25  1  0  0  0  0
 16 26  1  0  0  0  0
 17 27  1  0  0  0  0
  5 28  1  0  0  0  0
  5 29  1  0  0  0  0
  5 30  1  0  0  0  0
  6 31  1  0  0  0  0
  6 32  1  0  0  0  0
  6 33  1  0  0  0  0
  7 34  1  0  0  0  0
  7 35  1  0  0  0  0
  7 36  1  0  0  0  0
M  END
$$$$
