C10H14
APtclcactv12211717263D 0   0.00000     0.00000
 
 24 24  0  0  0  0  0  0  0  0999 V2000
    1.2588   -0.3912   -0.3253 C   0  0  0  0  0  0  0  0  0  0  0  0
    1.7085    0.3433   -1.5898 C   0  0  0  0  0  0  0  0  0  0  0  0
    2.0165    0.1627    0.8830 C   0  0  0  0  0  0  0  0  0  0  0  0
    3.5065   -0.1537    0.7395 C   0  0  0  0  0  0  0  0  0  0  0  0
   -0.2212   -0.1887   -0.1261 C   0  0  0  0  0  0  0  0  0  0  0  0
   -1.0707   -1.2789   -0.1000 C   0  0  0  0  0  0  0  0  0  0  0  0
   -2.4283   -1.0930    0.0826 C   0  0  0  0  0  0  0  0  0  0  0  0
   -2.9363    0.1830    0.2395 C   0  0  0  0  0  0  0  0  0  0  0  0
   -2.0867    1.2731    0.2143 C   0  0  0  0  0  0  0  0  0  0  0  0
   -0.7286    1.0870    0.0360 C   0  0  0  0  0  0  0  0  0  0  0  0
    1.4690   -1.4557   -0.4292 H   0  0  0  0  0  0  0  0  0  0  0  0
    2.7789    0.1968   -1.7338 H   0  0  0  0  0  0  0  0  0  0  0  0
    1.1687   -0.0513   -2.4506 H   0  0  0  0  0  0  0  0  0  0  0  0
    1.4982    1.4078   -1.4858 H   0  0  0  0  0  0  0  0  0  0  0  0
    1.8777    1.2425    0.9351 H   0  0  0  0  0  0  0  0  0  0  0  0
    1.6335   -0.2972    1.7941 H   0  0  0  0  0  0  0  0  0  0  0  0
    3.6453   -1.2336    0.6874 H   0  0  0  0  0  0  0  0  0  0  0  0
    3.8894    0.3062   -0.1716 H   0  0  0  0  0  0  0  0  0  0  0  0
    4.0463    0.2409    1.6003 H   0  0  0  0  0  0  0  0  0  0  0  0
   -0.6738   -2.2758   -0.2226 H   0  0  0  0  0  0  0  0  0  0  0  0
   -3.0921   -1.9447    0.1023 H   0  0  0  0  0  0  0  0  0  0  0  0
   -3.9970    0.3282    0.3815 H   0  0  0  0  0  0  0  0  0  0  0  0
   -2.4836    2.2701    0.3365 H   0  0  0  0  0  0  0  0  0  0  0  0
   -0.0648    1.9387    0.0163 H   0  0  0  0  0  0  0  0  0  0  0  0
  1  2  1  0  0  0  0
  1  3  1  0  0  0  0
  3  4  1  0  0  0  0
  1  5  1  0  0  0  0
  5  6  2  0  0  0  0
  6  7  1  0  0  0  0
  7  8  2  0  0  0  0
  8  9  1  0  0  0  0
  9 10  2  0  0  0  0
  5 10  1  0  0  0  0
  1 11  1  0  0  0  0
  2 12  1  0  0  0  0
  2 13  1  0  0  0  0
  2 14  1  0  0  0  0
  3 15  1  0  0  0  0
  3 16  1  0  0  0  0
  4 17  1  0  0  0  0
  4 18  1  0  0  0  0
  4 19  1  0  0  0  0
  6 20  1  0  0  0  0
  7 21  1  0  0  0  0
  8 22  1  0  0  0  0
  9 23  1  0  0  0  0
 10 24  1  0  0  0  0
M  END
$$$$
