C4H11N
APtclcactv12211716413D 0   0.00000     0.00000
 
 16 15  0  0  0  0  0  0  0  0999 V2000
   -0.4442    0.0132   -0.3528 C   0  0  0  0  0  0  0  0  0  0  0  0
   -1.7203    0.7798    0.0002 C   0  0  0  0  0  0  0  0  0  0  0  0
    0.7563    0.6859    0.3159 C   0  0  0  0  0  0  0  0  0  0  0  0
    2.0448   -0.0042   -0.1362 C   0  0  0  0  0  0  0  0  0  0  0  0
   -0.5574   -1.3718    0.1236 N   0  0  0  0  0  0  0  0  0  0  0  0
   -0.3063    0.0154   -1.4340 H   0  0  0  0  0  0  0  0  0  0  0  0
   -1.8582    0.7776    1.0814 H   0  0  0  0  0  0  0  0  0  0  0  0
   -1.6363    1.8075   -0.3533 H   0  0  0  0  0  0  0  0  0  0  0  0
   -2.5756    0.3005   -0.4762 H   0  0  0  0  0  0  0  0  0  0  0  0
    0.7884    1.7376    0.0314 H   0  0  0  0  0  0  0  0  0  0  0  0
    0.6616    0.6051    1.3987 H   0  0  0  0  0  0  0  0  0  0  0  0
    2.0128   -1.0560    0.1482 H   0  0  0  0  0  0  0  0  0  0  0  0
    2.1396    0.0766   -1.2191 H   0  0  0  0  0  0  0  0  0  0  0  0
    2.9001    0.4751    0.3401 H   0  0  0  0  0  0  0  0  0  0  0  0
   -0.6214   -1.4040    1.1300 H   0  0  0  0  0  0  0  0  0  0  0  0
   -1.3436   -1.8381   -0.3038 H   0  0  0  0  0  0  0  0  0  0  0  0
  1  2  1  0  0  0  0
  1  3  1  0  0  0  0
  3  4  1  0  0  0  0
  1  5  1  0  0  0  0
  1  6  1  0  0  0  0
  2  7  1  0  0  0  0
  2  8  1  0  0  0  0
  2  9  1  0  0  0  0
  3 10  1  0  0  0  0
  3 11  1  0  0  0  0
  4 12  1  0  0  0  0
  4 13  1  0  0  0  0
  4 14  1  0  0  0  0
  5 15  1  0  0  0  0
  5 16  1  0  0  0  0
M  END
$$$$
