C4H9Cl
APtclcactv12211716403D 0   0.00000     0.00000
 
 14 13  0  0  0  0  0  0  0  0999 V2000
   -0.1066    0.5421   -0.3821 C   0  0  0  0  0  0  0  0  0  0  0  0
   -0.9669    1.7426    0.0175 C   0  0  0  0  0  0  0  0  0  0  0  0
    1.2331    0.6071    0.3540 C   0  0  0  0  0  0  0  0  0  0  0  0
    2.1406   -0.5222   -0.1380 C   0  0  0  0  0  0  0  0  0  0  0  0
   -0.9612   -0.9830    0.0589 Cl  0  0  0  0  0  0  0  0  0  0  0  0
    0.0684    0.5625   -1.4577 H   0  0  0  0  0  0  0  0  0  0  0  0
   -0.4502    2.6646   -0.2491 H   0  0  0  0  0  0  0  0  0  0  0  0
   -1.9213    1.6962   -0.5069 H   0  0  0  0  0  0  0  0  0  0  0  0
   -1.1419    1.7222    1.0931 H   0  0  0  0  0  0  0  0  0  0  0  0
    1.7094    1.5677    0.1575 H   0  0  0  0  0  0  0  0  0  0  0  0
    1.0648    0.4974    1.4253 H   0  0  0  0  0  0  0  0  0  0  0  0
    3.0951   -0.4758    0.3864 H   0  0  0  0  0  0  0  0  0  0  0  0
    1.6644   -1.4827    0.0585 H   0  0  0  0  0  0  0  0  0  0  0  0
    2.3090   -0.4125   -1.2093 H   0  0  0  0  0  0  0  0  0  0  0  0
  1  2  1  0  0  0  0
  1  3  1  0  0  0  0
  3  4  1  0  0  0  0
  1  5  1  0  0  0  0
  1  6  1  0  0  0  0
  2  7  1  0  0  0  0
  2  8  1  0  0  0  0
  2  9  1  0  0  0  0
  3 10  1  0  0  0  0
  3 11  1  0  0  0  0
  4 12  1  0  0  0  0
  4 13  1  0  0  0  0
  4 14  1  0  0  0  0
M  END
$$$$
