C7H14O2
APtclcactv12151716223D 0   0.00000     0.00000
 
 23 22  0  0  0  0  0  0  0  0999 V2000
    1.6722   -0.5885    0.2065 C   0  0  0  0  0  0  0  0  0  0  0  0
    2.0785    0.7761   -0.3536 C   0  0  0  0  0  0  0  0  0  0  0  0
   -0.1648   -2.2785    0.3150 C   0  0  0  0  0  0  0  0  0  0  0  0
   -2.7218    1.4234    0.5973 C   0  0  0  0  0  0  0  0  0  0  0  0
    3.5442    1.0517   -0.0121 C   0  0  0  0  0  0  0  0  0  0  0  0
   -2.0867   -0.0674   -1.1132 O   0  0  0  0  0  0  0  0  0  0  0  0
   -1.7928    0.4303   -0.0522 C   0  0  0  0  0  0  0  0  0  0  0  0
   -0.6390    0.0987    0.5481 O   0  0  0  0  0  0  0  0  0  0  0  0
    0.2065   -0.8641   -0.1350 C   0  0  0  0  0  0  0  0  0  0  0  0
    0.0614   -0.7756   -1.2117 H   0  0  0  0  0  0  0  0  0  0  0  0
    2.2997   -1.3634   -0.2337 H   0  0  0  0  0  0  0  0  0  0  0  0
    1.7994   -0.5894    1.2890 H   0  0  0  0  0  0  0  0  0  0  0  0
   -1.2090   -2.4749    0.0717 H   0  0  0  0  0  0  0  0  0  0  0  0
    0.4698   -3.0013   -0.1978 H   0  0  0  0  0  0  0  0  0  0  0  0
   -0.0197   -2.3671    1.3916 H   0  0  0  0  0  0  0  0  0  0  0  0
   -2.2063    2.3758    0.7214 H   0  0  0  0  0  0  0  0  0  0  0  0
   -3.6001    1.5651   -0.0324 H   0  0  0  0  0  0  0  0  0  0  0  0
   -3.0308    1.0478    1.5728 H   0  0  0  0  0  0  0  0  0  0  0  0
    1.9513    0.7770   -1.4362 H   0  0  0  0  0  0  0  0  0  0  0  0
    1.4509    1.5510    0.0866 H   0  0  0  0  0  0  0  0  0  0  0  0
    3.8336    2.0238   -0.4112 H   0  0  0  0  0  0  0  0  0  0  0  0
    3.6714    1.0508    1.0704 H   0  0  0  0  0  0  0  0  0  0  0  0
    4.1717    0.2767   -0.4523 H   0  0  0  0  0  0  0  0  0  0  0  0
  8  9  1  0  0  0  0
  7  8  1  0  0  0  0
  1  9  1  0  0  0  0
  3  9  1  0  0  0  0
  4  7  1  0  0  0  0
  6  7  2  0  0  0  0
  1  2  1  0  0  0  0
  2  5  1  0  0  0  0
  9 10  1  0  0  0  0
  1 11  1  0  0  0  0
  1 12  1  0  0  0  0
  3 13  1  0  0  0  0
  3 14  1  0  0  0  0
  3 15  1  0  0  0  0
  4 16  1  0  0  0  0
  4 17  1  0  0  0  0
  4 18  1  0  0  0  0
  2 19  1  0  0  0  0
  2 20  1  0  0  0  0
  5 21  1  0  0  0  0
  5 22  1  0  0  0  0
  5 23  1  0  0  0  0
M  END
$$$$
