C8H16O2
APtclcactv12151716363D 0   0.00000     0.00000
 
 26 25  0  0  0  0  0  0  0  0999 V2000
    2.0708    0.7038   -0.0456 C   0  0  0  0  0  0  0  0  0  0  0  0
    2.7674    1.8455    0.6489 C   0  0  0  0  0  0  0  0  0  0  0  0
    2.4264    0.3599   -1.1480 O   0  0  0  0  0  0  0  0  0  0  0  0
    1.0589    0.0652    0.5627 O   0  0  0  0  0  0  0  0  0  0  0  0
    0.4346   -1.0248   -0.1655 C   0  0  0  0  0  0  0  0  0  0  0  0
    1.1523   -2.3353    0.1638 C   0  0  0  0  0  0  0  0  0  0  0  0
   -1.0365   -1.1330    0.2409 C   0  0  0  0  0  0  0  0  0  0  0  0
   -1.7817    0.1281   -0.2008 C   0  0  0  0  0  0  0  0  0  0  0  0
   -3.2528    0.0199    0.2055 C   0  0  0  0  0  0  0  0  0  0  0  0
   -3.9980    1.2810   -0.2362 C   0  0  0  0  0  0  0  0  0  0  0  0
    2.2707    2.7821    0.3956 H   0  0  0  0  0  0  0  0  0  0  0  0
    2.7277    1.6932    1.7274 H   0  0  0  0  0  0  0  0  0  0  0  0
    3.8076    1.8869    0.3258 H   0  0  0  0  0  0  0  0  0  0  0  0
    0.5025   -0.8324   -1.2362 H   0  0  0  0  0  0  0  0  0  0  0  0
    1.0844   -2.5277    1.2345 H   0  0  0  0  0  0  0  0  0  0  0  0
    0.6836   -3.1536   -0.3828 H   0  0  0  0  0  0  0  0  0  0  0  0
    2.2004   -2.2582   -0.1257 H   0  0  0  0  0  0  0  0  0  0  0  0
   -1.4825   -2.0049   -0.2376 H   0  0  0  0  0  0  0  0  0  0  0  0
   -1.1077   -1.2366    1.3236 H   0  0  0  0  0  0  0  0  0  0  0  0
   -1.3358    1.0000    0.2777 H   0  0  0  0  0  0  0  0  0  0  0  0
   -1.7105    0.2317   -1.2836 H   0  0  0  0  0  0  0  0  0  0  0  0
   -3.6987   -0.8520   -0.2730 H   0  0  0  0  0  0  0  0  0  0  0  0
   -3.3240   -0.0837    1.2882 H   0  0  0  0  0  0  0  0  0  0  0  0
   -3.5521    2.1530    0.2423 H   0  0  0  0  0  0  0  0  0  0  0  0
   -3.9268    1.3846   -1.3190 H   0  0  0  0  0  0  0  0  0  0  0  0
   -5.0460    1.2039    0.0533 H   0  0  0  0  0  0  0  0  0  0  0  0
  1  2  1  0  0  0  0
  1  3  2  0  0  0  0
  1  4  1  0  0  0  0
  4  5  1  0  0  0  0
  5  6  1  0  0  0  0
  5  7  1  0  0  0  0
  7  8  1  0  0  0  0
  8  9  1  0  0  0  0
  9 10  1  0  0  0  0
  2 11  1  0  0  0  0
  2 12  1  0  0  0  0
  2 13  1  0  0  0  0
  5 14  1  0  0  0  0
  6 15  1  0  0  0  0
  6 16  1  0  0  0  0
  6 17  1  0  0  0  0
  7 18  1  0  0  0  0
  7 19  1  0  0  0  0
  8 20  1  0  0  0  0
  8 21  1  0  0  0  0
  9 22  1  0  0  0  0
  9 23  1  0  0  0  0
 10 24  1  0  0  0  0
 10 25  1  0  0  0  0
 10 26  1  0  0  0  0
M  END
$$$$
