C10H19N5O
APtclcactv12211717293D 0   0.00000     0.00000
 
 35 35  0  0  0  0  0  0  0  0999 V2000
    4.4380   -0.7782    0.2086 C   0  0  0  0  0  0  0  0  0  0  0  0
   -3.9503   -0.9713    0.0221 C   0  0  0  0  0  0  0  0  0  0  0  0
    3.4608    0.5713   -1.6532 C   0  0  0  0  0  0  0  0  0  0  0  0
   -2.1439    3.2341    0.4034 C   0  0  0  0  0  0  0  0  0  0  0  0
    4.2346   -1.2394    1.6532 C   0  0  0  0  0  0  0  0  0  0  0  0
   -4.9735   -2.1064   -0.0516 C   0  0  0  0  0  0  0  0  0  0  0  0
    2.1732   -1.8439   -0.4050 H   0  0  0  0  0  0  0  0  0  0  0  0
   -2.4745   -2.4766   -0.2315 H   0  0  0  0  0  0  0  0  0  0  0  0
    0.7736   -0.3709   -0.1693 C   0  0  0  0  0  0  0  0  0  0  0  0
   -1.5052   -0.6818   -0.0792 C   0  0  0  0  0  0  0  0  0  0  0  0
   -0.6240    1.4355    0.1141 C   0  0  0  0  0  0  0  0  0  0  0  0
   -0.7993    2.7674    0.2759 O   0  0  0  0  0  0  0  0  0  0  0  0
    3.2076    0.0042   -0.2549 C   0  0  0  0  0  0  0  0  0  0  0  0
   -0.2798   -1.1810   -0.2037 N   0  0  0  0  0  0  0  0  0  0  0  0
    0.6004    0.9378   -0.0102 N   0  0  0  0  0  0  0  0  0  0  0  0
   -1.6764    0.6274    0.0799 N   0  0  0  0  0  0  0  0  0  0  0  0
    2.0468   -0.8887   -0.2929 N   0  0  0  0  0  0  0  0  0  0  0  0
   -2.5996   -1.5218   -0.1152 N   0  0  0  0  0  0  0  0  0  0  0  0
    3.0143    0.8221    0.4393 H   0  0  0  0  0  0  0  0  0  0  0  0
    5.3183   -0.1378    0.1522 H   0  0  0  0  0  0  0  0  0  0  0  0
    4.5791   -1.6473   -0.4338 H   0  0  0  0  0  0  0  0  0  0  0  0
    3.6541   -0.2465   -2.3474 H   0  0  0  0  0  0  0  0  0  0  0  0
    2.5843    1.1287   -1.9835 H   0  0  0  0  0  0  0  0  0  0  0  0
    4.3245    1.2357   -1.6249 H   0  0  0  0  0  0  0  0  0  0  0  0
   -4.1368   -0.2610   -0.7833 H   0  0  0  0  0  0  0  0  0  0  0  0
   -4.0397   -0.4634    0.9824 H   0  0  0  0  0  0  0  0  0  0  0  0
   -2.6087    2.7697    1.2731 H   0  0  0  0  0  0  0  0  0  0  0  0
   -2.1424    4.3170    0.5270 H   0  0  0  0  0  0  0  0  0  0  0  0
   -2.7061    2.9714   -0.4927 H   0  0  0  0  0  0  0  0  0  0  0  0
    3.3544   -1.8797    1.7097 H   0  0  0  0  0  0  0  0  0  0  0  0
    5.1112   -1.7968    1.9835 H   0  0  0  0  0  0  0  0  0  0  0  0
    4.0935   -0.3702    2.2957 H   0  0  0  0  0  0  0  0  0  0  0  0
   -5.9785   -1.6968    0.0506 H   0  0  0  0  0  0  0  0  0  0  0  0
   -4.8841   -2.6143   -1.0119 H   0  0  0  0  0  0  0  0  0  0  0  0
   -4.7870   -2.8166    0.7538 H   0  0  0  0  0  0  0  0  0  0  0  0
  9 14  1  0  0  0  0
  9 15  2  0  0  0  0
  9 17  1  0  0  0  0
 10 14  2  0  0  0  0
 11 15  1  0  0  0  0
 13 17  1  0  0  0  0
 10 16  1  0  0  0  0
 10 18  1  0  0  0  0
 11 12  1  0  0  0  0
  1 13  1  0  0  0  0
  3 13  1  0  0  0  0
  2 18  1  0  0  0  0
  4 12  1  0  0  0  0
  1  5  1  0  0  0  0
  2  6  1  0  0  0  0
 11 16  2  0  0  0  0
  7 17  1  0  0  0  0
 13 19  1  0  0  0  0
  8 18  1  0  0  0  0
  1 20  1  0  0  0  0
  1 21  1  0  0  0  0
  3 22  1  0  0  0  0
  3 23  1  0  0  0  0
  3 24  1  0  0  0  0
  2 25  1  0  0  0  0
  2 26  1  0  0  0  0
  4 27  1  0  0  0  0
  4 28  1  0  0  0  0
  4 29  1  0  0  0  0
  5 30  1  0  0  0  0
  5 31  1  0  0  0  0
  5 32  1  0  0  0  0
  6 33  1  0  0  0  0
  6 34  1  0  0  0  0
  6 35  1  0  0  0  0
M  END
$$$$
