C11H11N3OS
APtclcactv12211717323D 0   0.00000     0.00000
 
 27 28  0  0  0  0  0  0  0  0999 V2000
    2.3445    1.1895    0.5771 C   0  0  0  0  0  0  0  0  0  0  0  0
    3.7006    1.4443    0.6314 C   0  0  0  0  0  0  0  0  0  0  0  0
    4.6051    0.4642    0.2650 C   0  0  0  0  0  0  0  0  0  0  0  0
    2.8000   -1.0346   -0.2134 C   0  0  0  0  0  0  0  0  0  0  0  0
   -2.7678    1.3387   -0.4452 C   0  0  0  0  0  0  0  0  0  0  0  0
    5.1444   -1.8381   -0.5551 C   0  0  0  0  0  0  0  0  0  0  0  0
   -6.1409   -0.5538    0.0840 H   0  0  0  0  0  0  0  0  0  0  0  0
   -5.3177   -1.9526    0.5180 H   0  0  0  0  0  0  0  0  0  0  0  0
    0.1850   -1.2069    0.2827 H   0  0  0  0  0  0  0  0  0  0  0  0
   -4.1050   -0.3735    0.0553 C   0  0  0  0  0  0  0  0  0  0  0  0
   -1.7862    0.4312   -0.1581 C   0  0  0  0  0  0  0  0  0  0  0  0
    1.8892   -0.0527    0.1538 C   0  0  0  0  0  0  0  0  0  0  0  0
    4.1552   -0.7732   -0.1568 C   0  0  0  0  0  0  0  0  0  0  0  0
    0.0753    1.7694   -0.5376 O   0  0  0  0  0  0  0  0  0  0  0  0
   -0.3456    0.6742   -0.2122 C   0  0  0  0  0  0  0  0  0  0  0  0
   -5.3065   -1.0243    0.2370 N   0  0  0  0  0  0  0  0  0  0  0  0
    0.5165   -0.3142    0.0981 N   0  0  0  0  0  0  0  0  0  0  0  0
   -3.9824    0.8679   -0.3185 N   0  0  0  0  0  0  0  0  0  0  0  0
   -2.5678   -1.0830    0.2897 S   0  0  0  0  0  0  0  0  0  0  0  0
    1.6388    1.9537    0.8677 H   0  0  0  0  0  0  0  0  0  0  0  0
    4.0552    2.4100    0.9601 H   0  0  0  0  0  0  0  0  0  0  0  0
    5.6652    0.6662    0.3080 H   0  0  0  0  0  0  0  0  0  0  0  0
    5.4078   -2.4343    0.3185 H   0  0  0  0  0  0  0  0  0  0  0  0
    4.6993   -2.4819   -1.3137 H   0  0  0  0  0  0  0  0  0  0  0  0
    6.0415   -1.3681   -0.9582 H   0  0  0  0  0  0  0  0  0  0  0  0
    2.4492   -2.0016   -0.5423 H   0  0  0  0  0  0  0  0  0  0  0  0
   -2.5595    2.3550   -0.7455 H   0  0  0  0  0  0  0  0  0  0  0  0
 10 18  2  0  0  0  0
 10 16  1  0  0  0  0
 10 19  1  0  0  0  0
 11 19  1  0  0  0  0
 11 15  1  0  0  0  0
 14 15  2  0  0  0  0
 15 17  1  0  0  0  0
 12 17  1  0  0  0  0
  1 12  1  0  0  0  0
  1  2  2  0  0  0  0
  2  3  1  0  0  0  0
  3 13  2  0  0  0  0
  6 13  1  0  0  0  0
  4 13  1  0  0  0  0
  4 12  2  0  0  0  0
  5 11  2  0  0  0  0
  5 18  1  0  0  0  0
  7 16  1  0  0  0  0
  8 16  1  0  0  0  0
  9 17  1  0  0  0  0
  1 20  1  0  0  0  0
  2 21  1  0  0  0  0
  3 22  1  0  0  0  0
  6 23  1  0  0  0  0
  6 24  1  0  0  0  0
  6 25  1  0  0  0  0
  4 26  1  0  0  0  0
  5 27  1  0  0  0  0
M  END
$$$$
