C3H7NO3
APtclcactv12211716353D 0   0.00000     0.00000
 
 14 13  0  0  1  0  0  0  0  0999 V2000
    0.5628    1.5913   -0.3683 N   0  0  0  0  0  0  0  0  0  0  0  0
    0.2690    0.1540   -0.4451 C   0  0  1  0  0  0  0  0  0  0  0  0
    0.4064   -0.1907   -1.4699 H   0  0  0  0  0  0  0  0  0  0  0  0
    1.2165   -0.6105    0.4815 C   0  0  0  0  0  0  0  0  0  0  0  0
    2.5582   -0.4731    0.0093 O   0  0  0  0  0  0  0  0  0  0  0  0
   -1.1558   -0.0909   -0.0195 C   0  0  0  0  0  0  0  0  0  0  0  0
   -1.7389    0.7347    0.6425 O   0  0  0  0  0  0  0  0  0  0  0  0
   -1.7770   -1.2261   -0.3760 O   0  0  0  0  0  0  0  0  0  0  0  0
   -0.0060    2.1119   -1.0190 H   0  0  0  0  0  0  0  0  0  0  0  0
    0.4425    1.9352    0.5726 H   0  0  0  0  0  0  0  0  0  0  0  0
    1.1433   -0.2052    1.4907 H   0  0  0  0  0  0  0  0  0  0  0  0
    0.9414   -1.6651    0.4927 H   0  0  0  0  0  0  0  0  0  0  0  0
    3.2146   -0.9335    0.5500 H   0  0  0  0  0  0  0  0  0  0  0  0
   -2.6906   -1.3383   -0.0795 H   0  0  0  0  0  0  0  0  0  0  0  0
  1  2  1  0  0  0  0
  2  3  1  0  0  0  0
  2  4  1  0  0  0  0
  4  5  1  0  0  0  0
  2  6  1  0  0  0  0
  6  7  2  0  0  0  0
  6  8  1  0  0  0  0
  1  9  1  0  0  0  0
  1 10  1  0  0  0  0
  4 11  1  0  0  0  0
  4 12  1  0  0  0  0
  5 13  1  0  0  0  0
  8 14  1  0  0  0  0
M  END
$$$$
