C14H20N2O
APtclcactv12211717033D 0   0.00000     0.00000
 
 37 38  0  0  0  0  0  0  0  0999 V2000
    2.9204   -0.0623    1.0010 C   0  0  0  0  0  0  0  0  0  0  0  0
    3.7902   -0.1492   -1.2380 C   0  0  0  0  0  0  0  0  0  0  0  0
    4.1750    0.2726    1.4717 C   0  0  0  0  0  0  0  0  0  0  0  0
    5.0422    0.1864   -0.7611 C   0  0  0  0  0  0  0  0  0  0  0  0
    5.2346    0.3971    0.5920 C   0  0  0  0  0  0  0  0  0  0  0  0
   -2.8214   -2.3240    0.5426 C   0  0  0  0  0  0  0  0  0  0  0  0
   -0.9563   -1.1826   -1.3446 H   0  0  0  0  0  0  0  0  0  0  0  0
    1.3668   -1.2038   -1.6028 H   0  0  0  0  0  0  0  0  0  0  0  0
    2.7239   -0.2745   -0.3572 C   0  0  0  0  0  0  0  0  0  0  0  0
    0.4613    0.6907    0.6608 O   0  0  0  0  0  0  0  0  0  0  0  0
   -2.4605    1.3241   -0.6350 C   0  0  0  0  0  0  0  0  0  0  0  0
   -4.4654   -0.4428    0.5656 C   0  0  0  0  0  0  0  0  0  0  0  0
   -3.7110    1.8820    0.0475 C   0  0  0  0  0  0  0  0  0  0  0  0
   -4.8590    0.8805   -0.0939 C   0  0  0  0  0  0  0  0  0  0  0  0
    0.3526   -0.1230   -0.2361 C   0  0  0  0  0  0  0  0  0  0  0  0
   -2.0669    0.0008    0.0245 C   0  0  0  0  0  0  0  0  0  0  0  0
   -3.2149   -1.0007   -0.1169 C   0  0  0  0  0  0  0  0  0  0  0  0
   -0.8696   -0.5334   -0.6291 N   0  0  0  0  0  0  0  0  0  0  0  0
    1.4541   -0.6145   -0.8373 N   0  0  0  0  0  0  0  0  0  0  0  0
   -1.8596    0.1691    1.0813 H   0  0  0  0  0  0  0  0  0  0  0  0
   -3.4223   -1.1690   -1.1737 H   0  0  0  0  0  0  0  0  0  0  0  0
   -2.6678    1.1558   -1.6918 H   0  0  0  0  0  0  0  0  0  0  0  0
   -1.6426    2.0376   -0.5343 H   0  0  0  0  0  0  0  0  0  0  0  0
   -4.2581   -0.2745    1.6224 H   0  0  0  0  0  0  0  0  0  0  0  0
   -5.2833   -1.1563    0.4649 H   0  0  0  0  0  0  0  0  0  0  0  0
   -2.6141   -2.1557    1.5994 H   0  0  0  0  0  0  0  0  0  0  0  0
   -3.6393   -3.0375    0.4419 H   0  0  0  0  0  0  0  0  0  0  0  0
   -1.9305   -2.7215    0.0564 H   0  0  0  0  0  0  0  0  0  0  0  0
   -3.5036    2.0503    1.1043 H   0  0  0  0  0  0  0  0  0  0  0  0
   -3.9913    2.8248   -0.4224 H   0  0  0  0  0  0  0  0  0  0  0  0
   -5.0663    0.7123   -1.1507 H   0  0  0  0  0  0  0  0  0  0  0  0
   -5.7498    1.2780    0.3923 H   0  0  0  0  0  0  0  0  0  0  0  0
    2.0941   -0.1634    1.6890 H   0  0  0  0  0  0  0  0  0  0  0  0
    3.6405   -0.3132   -2.2949 H   0  0  0  0  0  0  0  0  0  0  0  0
    4.3284    0.4378    2.5279 H   0  0  0  0  0  0  0  0  0  0  0  0
    5.8718    0.2841   -1.4455 H   0  0  0  0  0  0  0  0  0  0  0  0
    6.2145    0.6598    0.9624 H   0  0  0  0  0  0  0  0  0  0  0  0
 16 18  1  0  0  0  0
 16 17  1  0  0  0  0
 11 16  1  0  0  0  0
 15 18  1  0  0  0  0
 12 17  1  0  0  0  0
  6 17  1  0  0  0  0
 11 13  1  0  0  0  0
 15 19  1  0  0  0  0
 10 15  2  0  0  0  0
 12 14  1  0  0  0  0
  9 19  1  0  0  0  0
  1  9  1  0  0  0  0
  2  9  2  0  0  0  0
  1  3  2  0  0  0  0
  2  4  1  0  0  0  0
  3  5  1  0  0  0  0
 13 14  1  0  0  0  0
  4  5  2  0  0  0  0
 16 20  1  0  0  0  0
  7 18  1  0  0  0  0
 17 21  1  0  0  0  0
 11 22  1  0  0  0  0
 11 23  1  0  0  0  0
 12 24  1  0  0  0  0
 12 25  1  0  0  0  0
  6 26  1  0  0  0  0
  6 27  1  0  0  0  0
  6 28  1  0  0  0  0
 13 29  1  0  0  0  0
 13 30  1  0  0  0  0
  8 19  1  0  0  0  0
 14 31  1  0  0  0  0
 14 32  1  0  0  0  0
  1 33  1  0  0  0  0
  2 34  1  0  0  0  0
  3 35  1  0  0  0  0
  4 36  1  0  0  0  0
  5 37  1  0  0  0  0
M  END
$$$$
