C8H15N5O
APtclcactv12151716353D 0   0.00000     0.00000
 
 29 29  0  0  0  0  0  0  0  0999 V2000
    3.4552    0.8383    0.0006 C   0  0  0  0  0  0  0  0  0  0  0  0
   -3.7494    0.2406   -0.0017 C   0  0  0  0  0  0  0  0  0  0  0  0
    1.4485   -3.2928   -0.0003 C   0  0  0  0  0  0  0  0  0  0  0  0
    4.5325    1.9247   -0.0038 C   0  0  0  0  0  0  0  0  0  0  0  0
   -4.9911    1.1346   -0.0015 C   0  0  0  0  0  0  0  0  0  0  0  0
    2.0509    2.4309   -0.0031 H   0  0  0  0  0  0  0  0  0  0  0  0
   -2.6268    2.0428    0.0020 H   0  0  0  0  0  0  0  0  0  0  0  0
    0.9961    0.6783    0.0035 C   0  0  0  0  0  0  0  0  0  0  0  0
   -1.2976    0.4880    0.0008 C   0  0  0  0  0  0  0  0  0  0  0  0
    0.0141   -1.4031   -0.0000 C   0  0  0  0  0  0  0  0  0  0  0  0
    0.1259   -2.7516   -0.0011 O   0  0  0  0  0  0  0  0  0  0  0  0
   -0.2057    1.2459    0.0029 N   0  0  0  0  0  0  0  0  0  0  0  0
   -1.1867   -0.8372   -0.0007 N   0  0  0  0  0  0  0  0  0  0  0  0
    1.1051   -0.6470    0.0021 N   0  0  0  0  0  0  0  0  0  0  0  0
    2.1306    1.4642   -0.0001 N   0  0  0  0  0  0  0  0  0  0  0  0
   -2.5461    1.0762    0.0006 N   0  0  0  0  0  0  0  0  0  0  0  0
    3.5633    0.2157   -0.8875 H   0  0  0  0  0  0  0  0  0  0  0  0
    3.5651    0.2214    0.8925 H   0  0  0  0  0  0  0  0  0  0  0  0
   -3.7556   -0.3900    0.8873 H   0  0  0  0  0  0  0  0  0  0  0  0
   -3.7540   -0.3874   -0.8927 H   0  0  0  0  0  0  0  0  0  0  0  0
    1.9785   -2.9557    0.8905 H   0  0  0  0  0  0  0  0  0  0  0  0
    1.3955   -4.3816   -0.0013 H   0  0  0  0  0  0  0  0  0  0  0  0
    1.9802   -2.9542   -0.8895 H   0  0  0  0  0  0  0  0  0  0  0  0
    5.5181    1.4591   -0.0033 H   0  0  0  0  0  0  0  0  0  0  0  0
    4.4226    2.5417   -0.8957 H   0  0  0  0  0  0  0  0  0  0  0  0
    4.4244    2.5473    0.8843 H   0  0  0  0  0  0  0  0  0  0  0  0
   -5.8864    0.5129   -0.0032 H   0  0  0  0  0  0  0  0  0  0  0  0
   -4.9865    1.7625    0.8895 H   0  0  0  0  0  0  0  0  0  0  0  0
   -4.9849    1.7652   -0.8905 H   0  0  0  0  0  0  0  0  0  0  0  0
 10 11  1  0  0  0  0
  3 11  1  0  0  0  0
  8 12  2  0  0  0  0
  9 12  1  0  0  0  0
  9 13  2  0  0  0  0
 10 13  1  0  0  0  0
  8 14  1  0  0  0  0
 10 14  2  0  0  0  0
  8 15  1  0  0  0  0
  1 15  1  0  0  0  0
  9 16  1  0  0  0  0
  2 16  1  0  0  0  0
  1  4  1  0  0  0  0
  2  5  1  0  0  0  0
  6 15  1  0  0  0  0
  7 16  1  0  0  0  0
  1 17  1  0  0  0  0
  1 18  1  0  0  0  0
  2 19  1  0  0  0  0
  2 20  1  0  0  0  0
  3 21  1  0  0  0  0
  3 22  1  0  0  0  0
  3 23  1  0  0  0  0
  4 24  1  0  0  0  0
  4 25  1  0  0  0  0
  4 26  1  0  0  0  0
  5 27  1  0  0  0  0
  5 28  1  0  0  0  0
  5 29  1  0  0  0  0
M  END
$$$$
