C9H9N
APtclcactv12151716433D 0   0.00000     0.00000
 
 19 20  0  0  0  0  0  0  0  0999 V2000
   -0.7551   -1.7499   -0.0001 N   0  0  0  0  0  0  0  0  0  0  0  0
   -1.9085   -1.0137   -0.0000 C   0  0  0  0  0  0  0  0  0  0  0  0
   -1.6155    0.2963   -0.0002 C   0  0  0  0  0  0  0  0  0  0  0  0
   -2.6019    1.4355    0.0003 C   0  0  0  0  0  0  0  0  0  0  0  0
   -0.1549    0.4084   -0.0003 C   0  0  0  0  0  0  0  0  0  0  0  0
    0.7359    1.4831   -0.0001 C   0  0  0  0  0  0  0  0  0  0  0  0
    2.0822    1.2485    0.0002 C   0  0  0  0  0  0  0  0  0  0  0  0
    2.5715   -0.0502    0.0002 C   0  0  0  0  0  0  0  0  0  0  0  0
    1.7102   -1.1257    0.0000 C   0  0  0  0  0  0  0  0  0  0  0  0
    0.3361   -0.9102   -0.0003 C   0  0  0  0  0  0  0  0  0  0  0  0
   -0.7126   -2.7190    0.0037 H   0  0  0  0  0  0  0  0  0  0  0  0
   -2.9069   -1.4256    0.0001 H   0  0  0  0  0  0  0  0  0  0  0  0
   -2.8396    1.7099    1.0281 H   0  0  0  0  0  0  0  0  0  0  0  0
   -2.1670    2.2929   -0.5134 H   0  0  0  0  0  0  0  0  0  0  0  0
   -3.5127    1.1278   -0.5135 H   0  0  0  0  0  0  0  0  0  0  0  0
    0.3624    2.4965   -0.0005 H   0  0  0  0  0  0  0  0  0  0  0  0
    2.7709    2.0804   -0.0000 H   0  0  0  0  0  0  0  0  0  0  0  0
    3.6381   -0.2196    0.0001 H   0  0  0  0  0  0  0  0  0  0  0  0
    2.1007   -2.1327   -0.0003 H   0  0  0  0  0  0  0  0  0  0  0  0
  1  2  1  0  0  0  0
  2  3  2  0  0  0  0
  3  4  1  0  0  0  0
  3  5  1  0  0  0  0
  5  6  2  0  0  0  0
  6  7  1  0  0  0  0
  7  8  2  0  0  0  0
  8  9  1  0  0  0  0
  9 10  2  0  0  0  0
  1 10  1  0  0  0  0
  5 10  1  0  0  0  0
  1 11  1  0  0  0  0
  2 12  1  0  0  0  0
  4 13  1  0  0  0  0
  4 14  1  0  0  0  0
  4 15  1  0  0  0  0
  6 16  1  0  0  0  0
  7 17  1  0  0  0  0
  8 18  1  0  0  0  0
  9 19  1  0  0  0  0
M  END
$$$$
