C10H18O2
APtclcactv12211717293D 0   0.00000     0.00000
 
 30 30  0  0  1  0  0  0  0  0999 V2000
    0.6801    0.1675   -0.3960 C   0  0  1  0  0  0  0  0  0  0  0  0
   -3.5626    0.8210   -0.1782 C   0  0  0  0  0  0  0  0  0  0  0  0
    2.9731    1.1560   -0.4810 C   0  0  0  0  0  0  0  0  0  0  0  0
    2.3007   -0.2754    1.4532 C   0  0  0  0  0  0  0  0  0  0  0  0
   -3.3741   -1.7140    0.0312 H   0  0  0  0  0  0  0  0  0  0  0  0
    2.1517   -2.0334   -0.5251 H   0  0  0  0  0  0  0  0  0  0  0  0
   -0.1623   -0.9965    0.1409 C   0  0  0  0  0  0  0  0  0  0  0  0
    0.1924    1.4610    0.2603 C   0  0  0  0  0  0  0  0  0  0  0  0
   -2.4478   -1.7601    0.3049 O   0  0  0  0  0  0  0  0  0  0  0  0
    2.6268   -1.2209   -0.7468 O   0  0  0  0  0  0  0  0  0  0  0  0
   -1.5953   -0.8332   -0.3705 C   0  0  0  0  0  0  0  0  0  0  0  0
   -2.0790    0.5643   -0.1155 C   0  0  0  0  0  0  0  0  0  0  0  0
   -1.3011    1.5630    0.1545 C   0  0  0  0  0  0  0  0  0  0  0  0
    2.1535   -0.0636   -0.0549 C   0  0  0  0  0  0  0  0  0  0  0  0
    0.5610    0.2378   -1.4772 H   0  0  0  0  0  0  0  0  0  0  0  0
   -1.6215   -1.0327   -1.4418 H   0  0  0  0  0  0  0  0  0  0  0  0
    0.2485   -1.9411   -0.2155 H   0  0  0  0  0  0  0  0  0  0  0  0
   -0.1581   -0.9797    1.2308 H   0  0  0  0  0  0  0  0  0  0  0  0
    0.4812    1.4640    1.3114 H   0  0  0  0  0  0  0  0  0  0  0  0
    0.6492    2.3147   -0.2402 H   0  0  0  0  0  0  0  0  0  0  0  0
   -1.7552    2.5299    0.3140 H   0  0  0  0  0  0  0  0  0  0  0  0
   -3.9991    0.6727    0.8095 H   0  0  0  0  0  0  0  0  0  0  0  0
   -3.7406    1.8459   -0.5039 H   0  0  0  0  0  0  0  0  0  0  0  0
   -4.0213    0.1301   -0.8857 H   0  0  0  0  0  0  0  0  0  0  0  0
    2.6121    2.0388    0.0468 H   0  0  0  0  0  0  0  0  0  0  0  0
    4.0228    0.9913   -0.2379 H   0  0  0  0  0  0  0  0  0  0  0  0
    2.8683    1.3069   -1.5554 H   0  0  0  0  0  0  0  0  0  0  0  0
    1.7168   -1.1443    1.7568 H   0  0  0  0  0  0  0  0  0  0  0  0
    3.3504   -0.4401    1.6963 H   0  0  0  0  0  0  0  0  0  0  0  0
    1.9397    0.6073    1.9810 H   0  0  0  0  0  0  0  0  0  0  0  0
  9 11  1  0  0  0  0
  7 11  1  0  0  0  0
 11 12  1  0  0  0  0
  1  7  1  0  0  0  0
  1 15  1  0  0  0  0
  1  8  1  0  0  0  0
  1 14  1  0  0  0  0
  8 13  1  0  0  0  0
 12 13  2  0  0  0  0
  2 12  1  0  0  0  0
 10 14  1  0  0  0  0
  3 14  1  0  0  0  0
  4 14  1  0  0  0  0
  5  9  1  0  0  0  0
 11 16  1  0  0  0  0
  7 17  1  0  0  0  0
  7 18  1  0  0  0  0
  8 19  1  0  0  0  0
  8 20  1  0  0  0  0
 13 21  1  0  0  0  0
  2 22  1  0  0  0  0
  2 23  1  0  0  0  0
  2 24  1  0  0  0  0
  6 10  1  0  0  0  0
  3 25  1  0  0  0  0
  3 26  1  0  0  0  0
  3 27  1  0  0  0  0
  4 28  1  0  0  0  0
  4 29  1  0  0  0  0
  4 30  1  0  0  0  0
M  END
$$$$
