C15H26N2
APtclcactv12211717103D 0   0.00000     0.00000
 
 43 46  0  0  1  0  0  0  0  0999 V2000
    0.6082   -1.3405    0.9408 C   0  0  1  0  0  0  0  0  0  0  0  0
    1.4595   -0.6017   -0.0971 C   0  0  2  0  0  0  0  0  0  0  0  0
   -0.5649    0.7789    1.4594 C   0  0  1  0  0  0  0  0  0  0  0  0
   -1.8308    0.2209    0.7936 C   0  0  1  0  0  0  0  0  0  0  0  0
    2.8369   -1.2699   -0.1509 C   0  0  0  0  0  0  0  0  0  0  0  0
    2.4414    1.5450   -0.6677 C   0  0  0  0  0  0  0  0  0  0  0  0
    3.7328   -0.5292   -1.1452 C   0  0  0  0  0  0  0  0  0  0  0  0
   -2.6351   -1.2548   -0.9614 C   0  0  0  0  0  0  0  0  0  0  0  0
    3.8426    0.9361   -0.7115 C   0  0  0  0  0  0  0  0  0  0  0  0
   -2.5995    1.3973    0.1826 C   0  0  0  0  0  0  0  0  0  0  0  0
   -3.3974   -0.1102   -1.6286 C   0  0  0  0  0  0  0  0  0  0  0  0
   -3.8398    0.8839   -0.5499 C   0  0  0  0  0  0  0  0  0  0  0  0
    0.2348   -0.3752    2.0705 C   0  0  0  0  0  0  0  0  0  0  0  0
   -0.6719   -1.8538    0.2841 C   0  0  0  0  0  0  0  0  0  0  0  0
    0.2887    1.4675    0.3934 C   0  0  0  0  0  0  0  0  0  0  0  0
    1.5996    0.8077    0.2877 N   0  0  0  0  0  0  0  0  0  0  0  0
   -1.4538   -0.7317   -0.2574 N   0  0  0  0  0  0  0  0  0  0  0  0
    1.1751   -2.1774    1.3485 H   0  0  0  0  0  0  0  0  0  0  0  0
    0.9808   -0.6668   -1.0742 H   0  0  0  0  0  0  0  0  0  0  0  0
   -0.8421    1.4875    2.2399 H   0  0  0  0  0  0  0  0  0  0  0  0
   -2.4509   -0.2728    1.5419 H   0  0  0  0  0  0  0  0  0  0  0  0
   -0.3733   -0.8932    2.8121 H   0  0  0  0  0  0  0  0  0  0  0  0
    1.1398    0.0110    2.5396 H   0  0  0  0  0  0  0  0  0  0  0  0
   -0.4134   -2.5370   -0.5249 H   0  0  0  0  0  0  0  0  0  0  0  0
   -1.2692   -2.3855    1.0248 H   0  0  0  0  0  0  0  0  0  0  0  0
    3.2927   -1.2411    0.8388 H   0  0  0  0  0  0  0  0  0  0  0  0
    2.7246   -2.3070   -0.4672 H   0  0  0  0  0  0  0  0  0  0  0  0
   -0.2215    1.4132   -0.5683 H   0  0  0  0  0  0  0  0  0  0  0  0
    0.4317    2.5133    0.6653 H   0  0  0  0  0  0  0  0  0  0  0  0
    2.5100    2.5881   -0.3589 H   0  0  0  0  0  0  0  0  0  0  0  0
    1.9932    1.4925   -1.6599 H   0  0  0  0  0  0  0  0  0  0  0  0
    4.7236   -0.9833   -1.1531 H   0  0  0  0  0  0  0  0  0  0  0  0
    3.2954   -0.5836   -2.1421 H   0  0  0  0  0  0  0  0  0  0  0  0
   -3.2885   -1.7568   -0.2478 H   0  0  0  0  0  0  0  0  0  0  0  0
   -2.3166   -1.9684   -1.7213 H   0  0  0  0  0  0  0  0  0  0  0  0
    4.4564    1.4836   -1.4268 H   0  0  0  0  0  0  0  0  0  0  0  0
    4.2957    0.9910    0.2783 H   0  0  0  0  0  0  0  0  0  0  0  0
   -2.9040    2.0814    0.9747 H   0  0  0  0  0  0  0  0  0  0  0  0
   -1.9553    1.9242   -0.5213 H   0  0  0  0  0  0  0  0  0  0  0  0
   -2.7476    0.3930   -2.3446 H   0  0  0  0  0  0  0  0  0  0  0  0
   -4.2736   -0.5054   -2.1425 H   0  0  0  0  0  0  0  0  0  0  0  0
   -4.5018    0.3848    0.1577 H   0  0  0  0  0  0  0  0  0  0  0  0
   -4.3618    1.7200   -1.0152 H   0  0  0  0  0  0  0  0  0  0  0  0
  1  2  1  0  0  0  0
  1 13  1  0  0  0  0
  1 14  1  0  0  0  0
  2 16  1  0  0  0  0
  2  5  1  0  0  0  0
  3 13  1  0  0  0  0
 14 17  1  0  0  0  0
 15 16  1  0  0  0  0
  6 16  1  0  0  0  0
  5  7  1  0  0  0  0
  3  4  1  0  0  0  0
  8 17  1  0  0  0  0
  6  9  1  0  0  0  0
  4 10  1  0  0  0  0
  8 11  1  0  0  0  0
 10 12  1  0  0  0  0
  3 15  1  0  0  0  0
  4 17  1  0  0  0  0
  7  9  1  0  0  0  0
 11 12  1  0  0  0  0
  1 18  1  0  0  0  0
  2 19  1  0  0  0  0
  3 20  1  0  0  0  0
  4 21  1  0  0  0  0
 13 22  1  0  0  0  0
 13 23  1  0  0  0  0
 14 24  1  0  0  0  0
 14 25  1  0  0  0  0
  5 26  1  0  0  0  0
  5 27  1  0  0  0  0
 15 28  1  0  0  0  0
 15 29  1  0  0  0  0
  6 30  1  0  0  0  0
  6 31  1  0  0  0  0
  7 32  1  0  0  0  0
  7 33  1  0  0  0  0
  8 34  1  0  0  0  0
  8 35  1  0  0  0  0
  9 36  1  0  0  0  0
  9 37  1  0  0  0  0
 10 38  1  0  0  0  0
 10 39  1  0  0  0  0
 11 40  1  0  0  0  0
 11 41  1  0  0  0  0
 12 42  1  0  0  0  0
 12 43  1  0  0  0  0
M  END
$$$$
