C10H14N4O3
APtclcactv12211717253D 0   0.00000     0.00000
 
 31 32  0  0  0  0  0  0  0  0999 V2000
   -1.0206    2.3288   -0.2920 C   0  0  0  0  0  0  0  0  0  0  0  0
   -2.5992    0.4355   -0.7752 C   0  0  0  0  0  0  0  0  0  0  0  0
    3.2075    1.8798    0.4737 C   0  0  0  0  0  0  0  0  0  0  0  0
    1.9613   -2.7660   -0.2086 C   0  0  0  0  0  0  0  0  0  0  0  0
   -4.6864   -0.5141    0.2168 C   0  0  0  0  0  0  0  0  0  0  0  0
   -2.8804   -1.4138    1.9360 H   0  0  0  0  0  0  0  0  0  0  0  0
   -0.5548   -1.8815   -0.6048 O   0  0  0  0  0  0  0  0  0  0  0  0
    3.6401   -0.7580    0.3032 O   0  0  0  0  0  0  0  0  0  0  0  0
   -2.5116   -1.0763    1.1082 O   0  0  0  0  0  0  0  0  0  0  0  0
    0.2739   -1.0218   -0.3646 C   0  0  0  0  0  0  0  0  0  0  0  0
    2.4876   -0.4185    0.1156 C   0  0  0  0  0  0  0  0  0  0  0  0
   -0.1033    0.3372   -0.3069 C   0  0  0  0  0  0  0  0  0  0  0  0
    0.8626    1.2966   -0.0305 C   0  0  0  0  0  0  0  0  0  0  0  0
   -3.2718   -0.0176    0.5222 C   0  0  0  0  0  0  0  0  0  0  0  0
    0.2528    2.4847   -0.0336 N   0  0  0  0  0  0  0  0  0  0  0  0
    2.1697    0.8882    0.1800 N   0  0  0  0  0  0  0  0  0  0  0  0
    1.5631   -1.3573   -0.1501 N   0  0  0  0  0  0  0  0  0  0  0  0
   -1.2917    1.0209   -0.4688 N   0  0  0  0  0  0  0  0  0  0  0  0
   -1.7455    3.1273   -0.3501 H   0  0  0  0  0  0  0  0  0  0  0  0
   -2.4677   -0.4220   -1.4351 H   0  0  0  0  0  0  0  0  0  0  0  0
   -3.2244    1.1804   -1.2676 H   0  0  0  0  0  0  0  0  0  0  0  0
    3.2728    2.0290    1.5515 H   0  0  0  0  0  0  0  0  0  0  0  0
    4.1666    1.5242    0.0974 H   0  0  0  0  0  0  0  0  0  0  0  0
    2.9551    2.8238   -0.0092 H   0  0  0  0  0  0  0  0  0  0  0  0
   -3.3230    0.8207    1.2169 H   0  0  0  0  0  0  0  0  0  0  0  0
    2.2523   -3.0193   -1.2280 H   0  0  0  0  0  0  0  0  0  0  0  0
    2.8041   -2.9334    0.4620 H   0  0  0  0  0  0  0  0  0  0  0  0
    1.1238   -3.3933    0.0968 H   0  0  0  0  0  0  0  0  0  0  0  0
   -5.2663    0.2934   -0.2302 H   0  0  0  0  0  0  0  0  0  0  0  0
   -4.6352   -1.3524   -0.4779 H   0  0  0  0  0  0  0  0  0  0  0  0
   -5.1656   -0.8369    1.1411 H   0  0  0  0  0  0  0  0  0  0  0  0
 12 13  2  0  0  0  0
 12 18  1  0  0  0  0
 10 12  1  0  0  0  0
 13 16  1  0  0  0  0
 13 15  1  0  0  0  0
  1 18  1  0  0  0  0
  2 18  1  0  0  0  0
 10 17  1  0  0  0  0
  7 10  2  0  0  0  0
 11 16  1  0  0  0  0
  3 16  1  0  0  0  0
  2 14  1  0  0  0  0
  4 17  1  0  0  0  0
  8 11  2  0  0  0  0
  5 14  1  0  0  0  0
  9 14  1  0  0  0  0
  1 15  2  0  0  0  0
 11 17  1  0  0  0  0
  1 19  1  0  0  0  0
  2 20  1  0  0  0  0
  2 21  1  0  0  0  0
  3 22  1  0  0  0  0
  3 23  1  0  0  0  0
  3 24  1  0  0  0  0
 14 25  1  0  0  0  0
  4 26  1  0  0  0  0
  4 27  1  0  0  0  0
  4 28  1  0  0  0  0
  5 29  1  0  0  0  0
  5 30  1  0  0  0  0
  5 31  1  0  0  0  0
  6  9  1  0  0  0  0
M  END
$$$$
