C17H36GeN2
APtclcactv12211717153D 0   0.00000     0.00000
 
 56 57  0  0  0  0  0  0  0  0999 V2000
    2.8557   -0.3332    0.0848 Ge  0  0  0  0  0  0  0  0  0  0  0  0
   -2.7259   -0.5587   -0.3093 C   0  0  0  0  0  0  0  0  0  0  0  0
   -4.1674   -0.0550   -0.4067 C   0  0  0  0  0  0  0  0  0  0  0  0
    4.5293    0.6635    0.4921 C   0  0  0  0  0  0  0  0  0  0  0  0
    3.2194   -2.2890    0.0320 C   0  0  0  0  0  0  0  0  0  0  0  0
   -5.1176   -1.1181    0.1481 C   0  0  0  0  0  0  0  0  0  0  0  0
    5.0920    0.1887    1.8333 C   0  0  0  0  0  0  0  0  0  0  0  0
    4.2331   -2.5896   -1.0739 C   0  0  0  0  0  0  0  0  0  0  0  0
   -7.4564   -1.7100    0.3539 C   0  0  0  0  0  0  0  0  0  0  0  0
   -6.7163    0.5206    0.9364 C   0  0  0  0  0  0  0  0  0  0  0  0
   -0.4049    0.1183   -0.5495 C   0  0  0  0  0  0  0  0  0  0  0  0
    0.9011    1.4681    1.1069 C   0  0  0  0  0  0  0  0  0  0  0  0
    1.4085    1.6323   -1.3827 C   0  0  0  0  0  0  0  0  0  0  0  0
   -0.7309    2.5451   -0.4562 C   0  0  0  0  0  0  0  0  0  0  0  0
    1.4566    0.0725    1.4641 C   0  0  0  0  0  0  0  0  0  0  0  0
    2.0957    0.2794   -1.6678 C   0  0  0  0  0  0  0  0  0  0  0  0
   -2.0519    1.7782   -0.1961 C   0  0  0  0  0  0  0  0  0  0  0  0
   -6.5016   -0.6345    0.0546 N   0  0  0  0  0  0  0  0  0  0  0  0
   -1.8136    0.4620   -0.8420 N   0  0  0  0  0  0  0  0  0  0  0  0
    0.3426    1.4425   -0.3107 C   0  0  0  0  0  0  0  0  0  0  0  0
   -0.3523   -0.5042    0.3437 H   0  0  0  0  0  0  0  0  0  0  0  0
    0.0329   -0.4074   -1.3981 H   0  0  0  0  0  0  0  0  0  0  0  0
    0.1076    1.7334    1.8055 H   0  0  0  0  0  0  0  0  0  0  0  0
    1.7019    2.2050    1.1689 H   0  0  0  0  0  0  0  0  0  0  0  0
    2.1506    2.3507   -1.0344 H   0  0  0  0  0  0  0  0  0  0  0  0
    0.9435    2.0035   -2.2960 H   0  0  0  0  0  0  0  0  0  0  0  0
   -0.7197    2.9640   -1.4624 H   0  0  0  0  0  0  0  0  0  0  0  0
   -0.5851    3.3263    0.2898 H   0  0  0  0  0  0  0  0  0  0  0  0
    0.6604   -0.6707    1.4213 H   0  0  0  0  0  0  0  0  0  0  0  0
    1.9032    0.0894    2.4583 H   0  0  0  0  0  0  0  0  0  0  0  0
    2.8942    0.4105   -2.3980 H   0  0  0  0  0  0  0  0  0  0  0  0
    1.3657   -0.4428   -2.0334 H   0  0  0  0  0  0  0  0  0  0  0  0
   -2.2220    1.6566    0.8737 H   0  0  0  0  0  0  0  0  0  0  0  0
   -2.8925    2.2900   -0.6646 H   0  0  0  0  0  0  0  0  0  0  0  0
   -2.4800   -0.7570    0.7339 H   0  0  0  0  0  0  0  0  0  0  0  0
   -2.6219   -1.4766   -0.8880 H   0  0  0  0  0  0  0  0  0  0  0  0
   -4.2714    0.8628    0.1720 H   0  0  0  0  0  0  0  0  0  0  0  0
   -4.4133    0.1433   -1.4499 H   0  0  0  0  0  0  0  0  0  0  0  0
    5.2616    0.4807   -0.2943 H   0  0  0  0  0  0  0  0  0  0  0  0
    4.3127    1.7304    0.5462 H   0  0  0  0  0  0  0  0  0  0  0  0
    3.6235   -2.6095    0.9922 H   0  0  0  0  0  0  0  0  0  0  0  0
    2.2922   -2.8257   -0.1694 H   0  0  0  0  0  0  0  0  0  0  0  0
   -5.0136   -2.0360   -0.4306 H   0  0  0  0  0  0  0  0  0  0  0  0
   -4.8717   -1.3164    1.1913 H   0  0  0  0  0  0  0  0  0  0  0  0
    6.0099    0.7331    2.0554 H   0  0  0  0  0  0  0  0  0  0  0  0
    4.3606    0.3735    2.6201 H   0  0  0  0  0  0  0  0  0  0  0  0
    5.3065   -0.8787    1.7800 H   0  0  0  0  0  0  0  0  0  0  0  0
    3.8318   -2.2630   -2.0332 H   0  0  0  0  0  0  0  0  0  0  0  0
    5.1625   -2.0583   -0.8690 H   0  0  0  0  0  0  0  0  0  0  0  0
    4.4272   -3.6617   -1.1073 H   0  0  0  0  0  0  0  0  0  0  0  0
   -7.2827   -2.0792    1.3647 H   0  0  0  0  0  0  0  0  0  0  0  0
   -8.4732   -1.3249    0.2775 H   0  0  0  0  0  0  0  0  0  0  0  0
   -7.3218   -2.5241   -0.3584 H   0  0  0  0  0  0  0  0  0  0  0  0
   -6.0437    1.3282    0.6476 H   0  0  0  0  0  0  0  0  0  0  0  0
   -7.7489    0.8584    0.8477 H   0  0  0  0  0  0  0  0  0  0  0  0
   -6.5158    0.2322    1.9683 H   0  0  0  0  0  0  0  0  0  0  0  0
 11 20  1  0  0  0  0
 12 20  1  0  0  0  0
 13 20  1  0  0  0  0
 14 20  1  0  0  0  0
 11 19  1  0  0  0  0
 12 15  1  0  0  0  0
 13 16  1  0  0  0  0
 14 17  1  0  0  0  0
  2 19  1  0  0  0  0
  1 15  1  0  0  0  0
  2  3  1  0  0  0  0
  1  4  1  0  0  0  0
  1  5  1  0  0  0  0
  3  6  1  0  0  0  0
  4  7  1  0  0  0  0
  5  8  1  0  0  0  0
  6 18  1  0  0  0  0
  9 18  1  0  0  0  0
 10 18  1  0  0  0  0
 17 19  1  0  0  0  0
  1 16  1  0  0  0  0
 11 21  1  0  0  0  0
 11 22  1  0  0  0  0
 12 23  1  0  0  0  0
 12 24  1  0  0  0  0
 13 25  1  0  0  0  0
 13 26  1  0  0  0  0
 14 27  1  0  0  0  0
 14 28  1  0  0  0  0
 15 29  1  0  0  0  0
 15 30  1  0  0  0  0
 16 31  1  0  0  0  0
 16 32  1  0  0  0  0
 17 33  1  0  0  0  0
 17 34  1  0  0  0  0
  2 35  1  0  0  0  0
  2 36  1  0  0  0  0
  3 37  1  0  0  0  0
  3 38  1  0  0  0  0
  4 39  1  0  0  0  0
  4 40  1  0  0  0  0
  5 41  1  0  0  0  0
  5 42  1  0  0  0  0
  6 43  1  0  0  0  0
  6 44  1  0  0  0  0
  7 45  1  0  0  0  0
  7 46  1  0  0  0  0
  7 47  1  0  0  0  0
  8 48  1  0  0  0  0
  8 49  1  0  0  0  0
  8 50  1  0  0  0  0
  9 51  1  0  0  0  0
  9 52  1  0  0  0  0
  9 53  1  0  0  0  0
 10 54  1  0  0  0  0
 10 55  1  0  0  0  0
 10 56  1  0  0  0  0
M  END
$$$$
