C10H12N2O4
APtclcactv12211717233D 0   0.00000     0.00000
 
 28 29  0  0  1  0  0  0  0  0999 V2000
    0.7798   -1.1539   -0.0021 C   0  0  2  0  0  0  0  0  0  0  0  0
    2.9704   -0.5789    0.0614 C   0  0  1  0  0  0  0  0  0  0  0  0
    3.8297    0.6856    0.1220 C   0  0  0  0  0  0  0  0  0  0  0  0
   -4.0752   -1.3611    0.8311 C   0  0  0  0  0  0  0  0  0  0  0  0
   -1.8956    2.3218   -0.7086 H   0  0  0  0  0  0  0  0  0  0  0  0
    4.7718    1.7179    1.5877 H   0  0  0  0  0  0  0  0  0  0  0  0
    0.3537    1.3822   -0.7527 O   0  0  0  0  0  0  0  0  0  0  0  0
   -4.0281    1.3037   -0.0427 O   0  0  0  0  0  0  0  0  0  0  0  0
    4.2232    0.9297    1.4739 O   0  0  0  0  0  0  0  0  0  0  0  0
   -0.6415    0.7765   -0.4047 C   0  0  0  0  0  0  0  0  0  0  0  0
   -2.8475   -0.6055    0.3918 C   0  0  0  0  0  0  0  0  0  0  0  0
   -2.9475    0.7422   -0.0302 C   0  0  0  0  0  0  0  0  0  0  0  0
    1.7229   -0.3658    0.7490 O   0  0  0  0  0  0  0  0  0  0  0  0
    1.3318   -1.2236   -1.4076 C   0  0  0  0  0  0  0  0  0  0  0  0
   -1.6375   -1.2047    0.3958 C   0  0  0  0  0  0  0  0  0  0  0  0
    2.6008   -0.8905   -1.3708 C   0  0  0  0  0  0  0  0  0  0  0  0
   -0.5330   -0.5038   -0.0059 N   0  0  0  0  0  0  0  0  0  0  0  0
   -1.8353    1.3981   -0.4185 N   0  0  0  0  0  0  0  0  0  0  0  0
    0.7025   -2.1546    0.4232 H   0  0  0  0  0  0  0  0  0  0  0  0
    0.7764   -1.5001   -2.2916 H   0  0  0  0  0  0  0  0  0  0  0  0
   -1.5419   -2.2321    0.7144 H   0  0  0  0  0  0  0  0  0  0  0  0
    3.5057   -1.4187    0.5045 H   0  0  0  0  0  0  0  0  0  0  0  0
    3.2674   -0.8465   -2.2194 H   0  0  0  0  0  0  0  0  0  0  0  0
    4.7174    0.5516   -0.4962 H   0  0  0  0  0  0  0  0  0  0  0  0
    3.2541    1.5341   -0.2477 H   0  0  0  0  0  0  0  0  0  0  0  0
   -4.2187   -1.2290    1.9035 H   0  0  0  0  0  0  0  0  0  0  0  0
   -4.9464   -0.9801    0.2983 H   0  0  0  0  0  0  0  0  0  0  0  0
   -3.9484   -2.4208    0.6093 H   0  0  0  0  0  0  0  0  0  0  0  0
  1 17  1  0  0  0  0
  1 13  1  0  0  0  0
  1 14  1  0  0  0  0
 10 17  1  0  0  0  0
 15 17  1  0  0  0  0
  2 13  1  0  0  0  0
 14 16  2  0  0  0  0
 10 18  1  0  0  0  0
  7 10  2  0  0  0  0
 11 15  2  0  0  0  0
  2  3  1  0  0  0  0
 12 18  1  0  0  0  0
  4 11  1  0  0  0  0
  3  9  1  0  0  0  0
  8 12  2  0  0  0  0
  2 16  1  0  0  0  0
 11 12  1  0  0  0  0
  1 19  1  0  0  0  0
 14 20  1  0  0  0  0
 15 21  1  0  0  0  0
  2 22  1  0  0  0  0
 16 23  1  0  0  0  0
  5 18  1  0  0  0  0
  3 24  1  0  0  0  0
  3 25  1  0  0  0  0
  4 26  1  0  0  0  0
  4 27  1  0  0  0  0
  4 28  1  0  0  0  0
  6  9  1  0  0  0  0
M  END
$$$$
