C8H8O
APtclcactv12151716283D 0   0.00000     0.00000
 
 17 18  0  0  0  0  0  0  0  0999 V2000
    2.5222   -0.4272    0.7396 C   0  0  0  0  0  0  0  0  0  0  0  0
    1.6012   -0.3928   -0.4817 C   0  0  0  0  0  0  0  0  0  0  0  0
    0.1282   -0.1809   -0.2446 C   0  0  0  0  0  0  0  0  0  0  0  0
   -0.7208   -1.2681   -0.1542 C   0  0  0  0  0  0  0  0  0  0  0  0
   -2.0720   -1.0738    0.0633 C   0  0  0  0  0  0  0  0  0  0  0  0
   -2.5742    0.2078    0.1907 C   0  0  0  0  0  0  0  0  0  0  0  0
   -1.7252    1.2950    0.1012 C   0  0  0  0  0  0  0  0  0  0  0  0
   -0.3733    1.1005   -0.1119 C   0  0  0  0  0  0  0  0  0  0  0  0
    2.4883    0.6810   -0.1621 O   0  0  0  0  0  0  0  0  0  0  0  0
    2.0682   -0.2967    1.7219 H   0  0  0  0  0  0  0  0  0  0  0  0
    3.3902   -1.0855    0.7028 H   0  0  0  0  0  0  0  0  0  0  0  0
    1.8572   -1.0290   -1.3289 H   0  0  0  0  0  0  0  0  0  0  0  0
   -0.3284   -2.2694   -0.2538 H   0  0  0  0  0  0  0  0  0  0  0  0
   -2.7353   -1.9232    0.1332 H   0  0  0  0  0  0  0  0  0  0  0  0
   -3.6300    0.3597    0.3599 H   0  0  0  0  0  0  0  0  0  0  0  0
   -2.1176    2.2963    0.2004 H   0  0  0  0  0  0  0  0  0  0  0  0
    0.2901    1.9498   -0.1819 H   0  0  0  0  0  0  0  0  0  0  0  0
  1  2  1  0  0  0  0
  2  3  1  0  0  0  0
  3  4  2  0  0  0  0
  4  5  1  0  0  0  0
  5  6  2  0  0  0  0
  6  7  1  0  0  0  0
  7  8  2  0  0  0  0
  3  8  1  0  0  0  0
  2  9  1  0  0  0  0
  1  9  1  0  0  0  0
  1 10  1  0  0  0  0
  1 11  1  0  0  0  0
  2 12  1  0  0  0  0
  4 13  1  0  0  0  0
  5 14  1  0  0  0  0
  6 15  1  0  0  0  0
  7 16  1  0  0  0  0
  8 17  1  0  0  0  0
M  END
$$$$
