C8H14O4
APtclcactv12151716343D 0   0.00000     0.00000
 
 26 25  0  0  0  0  0  0  0  0999 V2000
    4.3745    0.0267   -0.0015 C   0  0  0  0  0  0  0  0  0  0  0  0
    3.0693   -0.7267   -0.0017 C   0  0  0  0  0  0  0  0  0  0  0  0
    1.9065    0.2677   -0.0008 C   0  0  0  0  0  0  0  0  0  0  0  0
    0.5814   -0.4972   -0.0010 C   0  0  0  0  0  0  0  0  0  0  0  0
   -0.5814    0.4972   -0.0001 C   0  0  0  0  0  0  0  0  0  0  0  0
   -1.9065   -0.2677   -0.0003 C   0  0  0  0  0  0  0  0  0  0  0  0
   -3.0693    0.7267    0.0006 C   0  0  0  0  0  0  0  0  0  0  0  0
   -4.3745   -0.0267    0.0004 C   0  0  0  0  0  0  0  0  0  0  0  0
   -4.3746   -1.2350   -0.0004 O   0  0  0  0  0  0  0  0  0  0  0  0
   -5.5369    0.6445    0.0011 O   0  0  0  0  0  0  0  0  0  0  0  0
    4.3746    1.2350   -0.0007 O   0  0  0  0  0  0  0  0  0  0  0  0
    5.5369   -0.6445    0.0034 O   0  0  0  0  0  0  0  0  0  0  0  0
    3.0113   -1.3527   -0.8921 H   0  0  0  0  0  0  0  0  0  0  0  0
    3.0117   -1.3539    0.8879 H   0  0  0  0  0  0  0  0  0  0  0  0
    1.9645    0.8938    0.8896 H   0  0  0  0  0  0  0  0  0  0  0  0
    1.9641    0.8949   -0.8904 H   0  0  0  0  0  0  0  0  0  0  0  0
    0.5234   -1.1232   -0.8914 H   0  0  0  0  0  0  0  0  0  0  0  0
    0.5238   -1.1244    0.8886 H   0  0  0  0  0  0  0  0  0  0  0  0
   -0.5234    1.1232    0.8903 H   0  0  0  0  0  0  0  0  0  0  0  0
   -0.5238    1.1244   -0.8897 H   0  0  0  0  0  0  0  0  0  0  0  0
   -1.9645   -0.8938   -0.8907 H   0  0  0  0  0  0  0  0  0  0  0  0
   -1.9641   -0.8949    0.8893 H   0  0  0  0  0  0  0  0  0  0  0  0
   -3.0113    1.3527    0.8910 H   0  0  0  0  0  0  0  0  0  0  0  0
   -3.0117    1.3539   -0.8890 H   0  0  0  0  0  0  0  0  0  0  0  0
   -6.3479    0.1180    0.0009 H   0  0  0  0  0  0  0  0  0  0  0  0
    6.3479   -0.1180    0.0034 H   0  0  0  0  0  0  0  0  0  0  0  0
  1  2  1  0  0  0  0
  2  3  1  0  0  0  0
  3  4  1  0  0  0  0
  4  5  1  0  0  0  0
  5  6  1  0  0  0  0
  6  7  1  0  0  0  0
  7  8  1  0  0  0  0
  8  9  2  0  0  0  0
  8 10  1  0  0  0  0
  1 11  2  0  0  0  0
  1 12  1  0  0  0  0
  2 13  1  0  0  0  0
  2 14  1  0  0  0  0
  3 15  1  0  0  0  0
  3 16  1  0  0  0  0
  4 17  1  0  0  0  0
  4 18  1  0  0  0  0
  5 19  1  0  0  0  0
  5 20  1  0  0  0  0
  6 21  1  0  0  0  0
  6 22  1  0  0  0  0
  7 23  1  0  0  0  0
  7 24  1  0  0  0  0
 10 25  1  0  0  0  0
 12 26  1  0  0  0  0
M  END
$$$$
