C4H5NO2
APtclcactv12211716373D 0   0.00000     0.00000
 
 12 12  0  0  0  0  0  0  0  0999 V2000
   -1.1258    0.1709    0.0017 C   0  0  0  0  0  0  0  0  0  0  0  0
   -0.7711   -1.3001    0.0006 C   0  0  0  0  0  0  0  0  0  0  0  0
    0.7711   -1.3001   -0.0007 C   0  0  0  0  0  0  0  0  0  0  0  0
    1.1258    0.1709   -0.0002 C   0  0  0  0  0  0  0  0  0  0  0  0
    0.0000    0.8954    0.0012 N   0  0  0  0  0  0  0  0  0  0  0  0
    2.2510    0.6219   -0.0005 O   0  0  0  0  0  0  0  0  0  0  0  0
   -2.2510    0.6219   -0.0016 O   0  0  0  0  0  0  0  0  0  0  0  0
   -1.1540   -1.7876    0.8972 H   0  0  0  0  0  0  0  0  0  0  0  0
   -1.1555   -1.7867   -0.8958 H   0  0  0  0  0  0  0  0  0  0  0  0
    1.1555   -1.7876    0.8952 H   0  0  0  0  0  0  0  0  0  0  0  0
    1.1540   -1.7867   -0.8977 H   0  0  0  0  0  0  0  0  0  0  0  0
    0.0000    1.8654    0.0014 H   0  0  0  0  0  0  0  0  0  0  0  0
  1  2  1  0  0  0  0
  2  3  1  0  0  0  0
  3  4  1  0  0  0  0
  4  5  1  0  0  0  0
  1  5  1  0  0  0  0
  4  6  2  0  0  0  0
  1  7  2  0  0  0  0
  2  8  1  0  0  0  0
  2  9  1  0  0  0  0
  3 10  1  0  0  0  0
  3 11  1  0  0  0  0
  5 12  1  0  0  0  0
M  END
$$$$
