C13H13N3O5S2
APtclcactv12071713253D 0   0.00000     0.00000
 
 36 37  0  0  0  0  0  0  0  0999 V2000
   -0.3759   -1.3712    0.6256 C   0  0  0  0  0  0  0  0  0  0  0  0
   -1.1406    0.0782   -1.1235 C   0  0  0  0  0  0  0  0  0  0  0  0
    0.8741   -0.7866    0.5681 C   0  0  0  0  0  0  0  0  0  0  0  0
    0.1071    0.6671   -1.1857 C   0  0  0  0  0  0  0  0  0  0  0  0
   -5.1001    2.4930    1.0995 C   0  0  0  0  0  0  0  0  0  0  0  0
   -4.5671    2.7951   -0.0847 C   0  0  0  0  0  0  0  0  0  0  0  0
    4.8395    0.7589   -0.1012 C   0  0  0  0  0  0  0  0  0  0  0  0
    5.9125   -0.2919    0.1914 C   0  0  0  0  0  0  0  0  0  0  0  0
   -4.1626   -1.2544    1.7793 H   0  0  0  0  0  0  0  0  0  0  0  0
    2.4686    1.7717   -0.6181 H   0  0  0  0  0  0  0  0  0  0  0  0
   -1.3822   -0.9393   -0.2189 C   0  0  0  0  0  0  0  0  0  0  0  0
   -4.1923    0.4936    0.7067 C   0  0  0  0  0  0  0  0  0  0  0  0
    1.1198    0.2358   -0.3390 C   0  0  0  0  0  0  0  0  0  0  0  0
   -3.5828   -1.4689   -1.4084 O   0  0  0  0  0  0  0  0  0  0  0  0
   -2.7853   -2.9807    0.4153 O   0  0  0  0  0  0  0  0  0  0  0  0
    3.3916   -1.1005    0.0256 O   0  0  0  0  0  0  0  0  0  0  0  0
    7.3600    1.5630    0.0652 O   0  0  0  0  0  0  0  0  0  0  0  0
    8.3625   -0.3604    0.4885 O   0  0  0  0  0  0  0  0  0  0  0  0
    3.4876    0.0952   -0.1535 C   0  0  0  0  0  0  0  0  0  0  0  0
    7.2645    0.3718    0.2437 C   0  0  0  0  0  0  0  0  0  0  0  0
    9.2073    0.1096    0.5124 H   0  0  0  0  0  0  0  0  0  0  0  0
    2.3850    0.8304   -0.3994 N   0  0  0  0  0  0  0  0  0  0  0  0
   -4.8836    1.2525    1.4992 N   0  0  0  0  0  0  0  0  0  0  0  0
   -3.8675   -0.8302    0.9584 N   0  0  0  0  0  0  0  0  0  0  0  0
   -2.9756   -1.6876   -0.1424 S   0  0  0  0  0  0  0  0  0  0  0  0
   -3.7403    1.3637   -0.6938 S   0  0  0  0  0  0  0  0  0  0  0  0
   -0.5664   -2.1694    1.3277 H   0  0  0  0  0  0  0  0  0  0  0  0
   -1.9285    0.4130   -1.7820 H   0  0  0  0  0  0  0  0  0  0  0  0
    1.6595   -1.1241    1.2282 H   0  0  0  0  0  0  0  0  0  0  0  0
    0.2953    1.4618   -1.8924 H   0  0  0  0  0  0  0  0  0  0  0  0
   -5.6598    3.2060    1.6865 H   0  0  0  0  0  0  0  0  0  0  0  0
   -4.6310    3.7508   -0.5836 H   0  0  0  0  0  0  0  0  0  0  0  0
    4.8443    1.5121    0.6866 H   0  0  0  0  0  0  0  0  0  0  0  0
    5.0483    1.2342   -1.0597 H   0  0  0  0  0  0  0  0  0  0  0  0
    5.7038   -0.7672    1.1498 H   0  0  0  0  0  0  0  0  0  0  0  0
    5.9078   -1.0452   -0.5965 H   0  0  0  0  0  0  0  0  0  0  0  0
 11 25  1  0  0  0  0
  1 11  1  0  0  0  0
  2 11  2  0  0  0  0
 24 25  1  0  0  0  0
 14 25  2  0  0  0  0
 15 25  2  0  0  0  0
  1  3  2  0  0  0  0
  2  4  1  0  0  0  0
 12 24  1  0  0  0  0
  3 13  1  0  0  0  0
 12 23  2  0  0  0  0
 12 26  1  0  0  0  0
 13 22  1  0  0  0  0
  5 23  1  0  0  0  0
  6 26  1  0  0  0  0
 19 22  1  0  0  0  0
  7 19  1  0  0  0  0
 16 19  2  0  0  0  0
  7  8  1  0  0  0  0
  8 20  1  0  0  0  0
 18 20  1  0  0  0  0
 17 20  2  0  0  0  0
  4 13  2  0  0  0  0
  5  6  2  0  0  0  0
  1 27  1  0  0  0  0
  2 28  1  0  0  0  0
  9 24  1  0  0  0  0
  3 29  1  0  0  0  0
  4 30  1  0  0  0  0
 10 22  1  0  0  0  0
  5 31  1  0  0  0  0
  6 32  1  0  0  0  0
  7 33  1  0  0  0  0
  7 34  1  0  0  0  0
  8 35  1  0  0  0  0
  8 36  1  0  0  0  0
 18 21  1  0  0  0  0
M  END
$$$$
