C9H10N4O2S2
APtclcactv12151716443D 0   0.00000     0.00000
 
 27 28  0  0  0  0  0  0  0  0999 V2000
    2.5449   -0.4627    0.9254 C   0  0  0  0  0  0  0  0  0  0  0  0
    1.5422    0.5865   -0.9823 C   0  0  0  0  0  0  0  0  0  0  0  0
    3.3980    0.6133    1.0733 C   0  0  0  0  0  0  0  0  0  0  0  0
    2.3922    1.6656   -0.8402 C   0  0  0  0  0  0  0  0  0  0  0  0
   -4.4398    2.3267   -0.1298 C   0  0  0  0  0  0  0  0  0  0  0  0
   -1.0431   -2.0776    1.3744 H   0  0  0  0  0  0  0  0  0  0  0  0
    4.8356    2.7834    1.0562 H   0  0  0  0  0  0  0  0  0  0  0  0
    4.1330    3.5186   -0.2811 H   0  0  0  0  0  0  0  0  0  0  0  0
    1.6181   -0.4763   -0.1008 C   0  0  0  0  0  0  0  0  0  0  0  0
   -1.6505   -0.4699    0.2535 C   0  0  0  0  0  0  0  0  0  0  0  0
    3.3244    1.6825    0.1896 C   0  0  0  0  0  0  0  0  0  0  0  0
   -3.3204    1.3184   -0.0946 C   0  0  0  0  0  0  0  0  0  0  0  0
    0.1249   -1.8604   -1.6476 O   0  0  0  0  0  0  0  0  0  0  0  0
    1.1708   -2.9547    0.3414 O   0  0  0  0  0  0  0  0  0  0  0  0
    4.1854    2.7725    0.3365 N   0  0  0  0  0  0  0  0  0  0  0  0
   -1.4710    0.3452   -0.7463 N   0  0  0  0  0  0  0  0  0  0  0  0
   -2.3261    1.2558   -0.9191 N   0  0  0  0  0  0  0  0  0  0  0  0
   -0.8253   -1.5276    0.6057 N   0  0  0  0  0  0  0  0  0  0  0  0
    0.5320   -1.8513   -0.2862 S   0  0  0  0  0  0  0  0  0  0  0  0
   -3.1293    0.0187    1.0839 S   0  0  0  0  0  0  0  0  0  0  0  0
    2.6046   -1.2963    1.6094 H   0  0  0  0  0  0  0  0  0  0  0  0
    0.8172    0.5727   -1.7827 H   0  0  0  0  0  0  0  0  0  0  0  0
    4.1213    0.6234    1.8752 H   0  0  0  0  0  0  0  0  0  0  0  0
    2.3324    2.4953   -1.5289 H   0  0  0  0  0  0  0  0  0  0  0  0
   -4.1636    3.1972    0.4652 H   0  0  0  0  0  0  0  0  0  0  0  0
   -4.6205    2.6332   -1.1600 H   0  0  0  0  0  0  0  0  0  0  0  0
   -5.3451    1.8789    0.2802 H   0  0  0  0  0  0  0  0  0  0  0  0
  9 19  1  0  0  0  0
  1  9  1  0  0  0  0
  2  9  2  0  0  0  0
 18 19  1  0  0  0  0
 13 19  2  0  0  0  0
 14 19  2  0  0  0  0
  1  3  2  0  0  0  0
  2  4  1  0  0  0  0
 10 18  1  0  0  0  0
  3 11  1  0  0  0  0
 10 20  1  0  0  0  0
 10 16  2  0  0  0  0
 11 15  1  0  0  0  0
 12 20  1  0  0  0  0
 16 17  1  0  0  0  0
  5 12  1  0  0  0  0
  4 11  2  0  0  0  0
 12 17  2  0  0  0  0
  1 21  1  0  0  0  0
  2 22  1  0  0  0  0
  6 18  1  0  0  0  0
  3 23  1  0  0  0  0
  4 24  1  0  0  0  0
  7 15  1  0  0  0  0
  8 15  1  0  0  0  0
  5 25  1  0  0  0  0
  5 26  1  0  0  0  0
  5 27  1  0  0  0  0
M  END
$$$$
