C11H12N4O3S
APtclcactv12211717333D 0   0.00000     0.00000
 
 31 32  0  0  0  0  0  0  0  0999 V2000
    2.8471   -0.1654    0.7741 C   0  0  0  0  0  0  0  0  0  0  0  0
    1.4091    0.8036   -0.8809 C   0  0  0  0  0  0  0  0  0  0  0  0
    3.4444    1.0627    0.9794 C   0  0  0  0  0  0  0  0  0  0  0  0
    2.0020    2.0347   -0.6805 C   0  0  0  0  0  0  0  0  0  0  0  0
   -3.4651   -0.5930    1.0291 C   0  0  0  0  0  0  0  0  0  0  0  0
   -2.1721    0.8082   -0.4101 C   0  0  0  0  0  0  0  0  0  0  0  0
   -4.2487    2.5394   -0.7212 C   0  0  0  0  0  0  0  0  0  0  0  0
   -0.1981   -2.6326    1.3428 H   0  0  0  0  0  0  0  0  0  0  0  0
    4.3375    3.5045    1.1086 H   0  0  0  0  0  0  0  0  0  0  0  0
    3.3298    4.1836   -0.0516 H   0  0  0  0  0  0  0  0  0  0  0  0
    1.8308   -0.2951   -0.1547 C   0  0  0  0  0  0  0  0  0  0  0  0
   -1.2858   -1.1113    0.4999 C   0  0  0  0  0  0  0  0  0  0  0  0
    3.0232    2.1685    0.2517 C   0  0  0  0  0  0  0  0  0  0  0  0
   -3.3727    0.5482    0.2407 C   0  0  0  0  0  0  0  0  0  0  0  0
    0.5162   -1.8299   -1.7213 O   0  0  0  0  0  0  0  0  0  0  0  0
    2.0160   -2.8404    0.0040 O   0  0  0  0  0  0  0  0  0  0  0  0
   -4.4325    1.3907    0.1087 O   0  0  0  0  0  0  0  0  0  0  0  0
    3.6248    3.4122    0.4572 N   0  0  0  0  0  0  0  0  0  0  0  0
   -2.4144   -1.3900    1.1343 N   0  0  0  0  0  0  0  0  0  0  0  0
   -1.1624   -0.0333   -0.2593 N   0  0  0  0  0  0  0  0  0  0  0  0
   -0.2056   -1.9699    0.6345 N   0  0  0  0  0  0  0  0  0  0  0  0
    1.0719   -1.8641   -0.4139 S   0  0  0  0  0  0  0  0  0  0  0  0
    3.1771   -1.0264    1.3363 H   0  0  0  0  0  0  0  0  0  0  0  0
    0.6151    0.6988   -1.6055 H   0  0  0  0  0  0  0  0  0  0  0  0
    4.2378    1.1634    1.7052 H   0  0  0  0  0  0  0  0  0  0  0  0
    1.6722    2.8923   -1.2479 H   0  0  0  0  0  0  0  0  0  0  0  0
   -4.3812   -0.8236    1.5525 H   0  0  0  0  0  0  0  0  0  0  0  0
   -2.0651    1.6854   -1.0309 H   0  0  0  0  0  0  0  0  0  0  0  0
   -3.4377    3.1492   -0.3231 H   0  0  0  0  0  0  0  0  0  0  0  0
   -4.0003    2.2204   -1.7334 H   0  0  0  0  0  0  0  0  0  0  0  0
   -5.1680    3.1248   -0.7400 H   0  0  0  0  0  0  0  0  0  0  0  0
 11 22  1  0  0  0  0
  1 11  2  0  0  0  0
  2 11  1  0  0  0  0
 21 22  1  0  0  0  0
 15 22  2  0  0  0  0
 16 22  2  0  0  0  0
  1  3  1  0  0  0  0
  2  4  2  0  0  0  0
 12 21  1  0  0  0  0
  3 13  2  0  0  0  0
 12 19  1  0  0  0  0
 12 20  2  0  0  0  0
 13 18  1  0  0  0  0
  5 19  2  0  0  0  0
  6 20  1  0  0  0  0
  5 14  1  0  0  0  0
 14 17  1  0  0  0  0
  7 17  1  0  0  0  0
  4 13  1  0  0  0  0
  6 14  2  0  0  0  0
  1 23  1  0  0  0  0
  2 24  1  0  0  0  0
  8 21  1  0  0  0  0
  3 25  1  0  0  0  0
  4 26  1  0  0  0  0
  9 18  1  0  0  0  0
 10 18  1  0  0  0  0
  5 27  1  0  0  0  0
  6 28  1  0  0  0  0
  7 29  1  0  0  0  0
  7 30  1  0  0  0  0
  7 31  1  0  0  0  0
M  END
$$$$
