C12H14N4O4S
APtclcactv12111704593D 0   0.00000     0.00000
 
 35 36  0  0  0  0  0  0  0  0999 V2000
    2.1493   -1.2784   -0.9925 C   0  0  0  0  0  0  0  0  0  0  0  0
   -3.1223   -0.3885   -0.9704 C   0  0  0  0  0  0  0  0  0  0  0  0
   -1.8684    0.8146    0.6806 C   0  0  0  0  0  0  0  0  0  0  0  0
   -3.7321    0.7852   -1.3678 C   0  0  0  0  0  0  0  0  0  0  0  0
   -2.4747    1.9919    0.2885 C   0  0  0  0  0  0  0  0  0  0  0  0
    5.3012    0.5627   -1.3269 C   0  0  0  0  0  0  0  0  0  0  0  0
    2.8493    2.6823    1.7317 C   0  0  0  0  0  0  0  0  0  0  0  0
    0.0290   -2.7869   -0.9819 H   0  0  0  0  0  0  0  0  0  0  0  0
   -4.6769    3.1612   -1.8560 H   0  0  0  0  0  0  0  0  0  0  0  0
   -3.7983    4.0044   -0.6986 H   0  0  0  0  0  0  0  0  0  0  0  0
    0.9926   -1.1405   -0.2289 C   0  0  0  0  0  0  0  0  0  0  0  0
    3.1635   -0.3435   -0.8301 C   0  0  0  0  0  0  0  0  0  0  0  0
    1.8864    0.7465    0.7521 C   0  0  0  0  0  0  0  0  0  0  0  0
   -2.1917   -0.3741    0.0523 C   0  0  0  0  0  0  0  0  0  0  0  0
   -3.4097    1.9811   -0.7388 C   0  0  0  0  0  0  0  0  0  0  0  0
   -0.9833   -1.6716    1.8947 O   0  0  0  0  0  0  0  0  0  0  0  0
   -2.2912   -2.9262    0.1734 O   0  0  0  0  0  0  0  0  0  0  0  0
    4.3065   -0.4382   -1.5524 O   0  0  0  0  0  0  0  0  0  0  0  0
    1.7552    1.7686    1.6312 O   0  0  0  0  0  0  0  0  0  0  0  0
   -4.0242    3.1700   -1.1385 N   0  0  0  0  0  0  0  0  0  0  0  0
    0.8987   -0.1242    0.6251 N   0  0  0  0  0  0  0  0  0  0  0  0
    2.9985    0.6459    0.0431 N   0  0  0  0  0  0  0  0  0  0  0  0
   -0.0464   -2.0488   -0.3570 N   0  0  0  0  0  0  0  0  0  0  0  0
   -1.4165   -1.8739    0.5565 S   0  0  0  0  0  0  0  0  0  0  0  0
    2.2568   -2.0952   -1.6909 H   0  0  0  0  0  0  0  0  0  0  0  0
   -3.3758   -1.3193   -1.4560 H   0  0  0  0  0  0  0  0  0  0  0  0
   -1.1411    0.8224    1.4790 H   0  0  0  0  0  0  0  0  0  0  0  0
    6.1623    0.3699   -1.9668 H   0  0  0  0  0  0  0  0  0  0  0  0
    4.8883    1.5443   -1.5593 H   0  0  0  0  0  0  0  0  0  0  0  0
    5.6119    0.5373   -0.2824 H   0  0  0  0  0  0  0  0  0  0  0  0
    3.7453    2.1437    2.0404 H   0  0  0  0  0  0  0  0  0  0  0  0
    3.0224    3.1500    0.7625 H   0  0  0  0  0  0  0  0  0  0  0  0
    2.6149    3.4501    2.4690 H   0  0  0  0  0  0  0  0  0  0  0  0
   -4.4586    0.7733   -2.1669 H   0  0  0  0  0  0  0  0  0  0  0  0
   -2.2218    2.9199    0.7795 H   0  0  0  0  0  0  0  0  0  0  0  0
 11 23  1  0  0  0  0
  1 11  1  0  0  0  0
 11 21  2  0  0  0  0
 23 24  1  0  0  0  0
  1 12  2  0  0  0  0
 13 21  1  0  0  0  0
 14 24  1  0  0  0  0
 16 24  2  0  0  0  0
 17 24  2  0  0  0  0
 12 22  1  0  0  0  0
 12 18  1  0  0  0  0
 13 19  1  0  0  0  0
  2 14  2  0  0  0  0
  3 14  1  0  0  0  0
  6 18  1  0  0  0  0
  7 19  1  0  0  0  0
  2  4  1  0  0  0  0
  3  5  2  0  0  0  0
  4 15  2  0  0  0  0
 15 20  1  0  0  0  0
 13 22  2  0  0  0  0
  5 15  1  0  0  0  0
  8 23  1  0  0  0  0
  1 25  1  0  0  0  0
  2 26  1  0  0  0  0
  3 27  1  0  0  0  0
  6 28  1  0  0  0  0
  6 29  1  0  0  0  0
  6 30  1  0  0  0  0
  7 31  1  0  0  0  0
  7 32  1  0  0  0  0
  7 33  1  0  0  0  0
  4 34  1  0  0  0  0
  5 35  1  0  0  0  0
  9 20  1  0  0  0  0
 10 20  1  0  0  0  0
M  END
$$$$
