C12H12N2O2S
APtclcactv12111704583D 0   0.00000     0.00000
 
 29 30  0  0  0  0  0  0  0  0999 V2000
    1.2403    0.3222    1.1204 C   0  0  0  0  0  0  0  0  0  0  0  0
    2.1052   -0.6639   -0.8859 C   0  0  0  0  0  0  0  0  0  0  0  0
    2.2784    1.2330    1.1246 C   0  0  0  0  0  0  0  0  0  0  0  0
    3.1459    0.2439   -0.8878 C   0  0  0  0  0  0  0  0  0  0  0  0
   -1.6847    1.1887   -1.2180 C   0  0  0  0  0  0  0  0  0  0  0  0
   -2.9448    0.0413    0.4778 C   0  0  0  0  0  0  0  0  0  0  0  0
   -2.3196    2.3693   -0.8859 C   0  0  0  0  0  0  0  0  0  0  0  0
   -3.5760    1.2253    0.8048 C   0  0  0  0  0  0  0  0  0  0  0  0
   -3.2640    2.3879    0.1241 C   0  0  0  0  0  0  0  0  0  0  0  0
   -1.6046   -1.6508   -1.6788 H   0  0  0  0  0  0  0  0  0  0  0  0
    4.3489    2.7818    0.8232 H   0  0  0  0  0  0  0  0  0  0  0  0
    4.9552    2.0904   -0.5829 H   0  0  0  0  0  0  0  0  0  0  0  0
    1.1535   -0.6251    0.1167 C   0  0  0  0  0  0  0  0  0  0  0  0
   -1.9957    0.0190   -0.5362 C   0  0  0  0  0  0  0  0  0  0  0  0
    3.2361    1.1968    0.1190 C   0  0  0  0  0  0  0  0  0  0  0  0
    0.3192   -2.9558   -0.5233 O   0  0  0  0  0  0  0  0  0  0  0  0
   -0.7070   -1.7853    1.4322 O   0  0  0  0  0  0  0  0  0  0  0  0
    4.2871    2.1167    0.1199 N   0  0  0  0  0  0  0  0  0  0  0  0
   -1.3558   -1.1769   -0.8699 N   0  0  0  0  0  0  0  0  0  0  0  0
   -0.1723   -1.7856    0.1156 S   0  0  0  0  0  0  0  0  0  0  0  0
    0.4979    0.3469    1.9044 H   0  0  0  0  0  0  0  0  0  0  0  0
    2.0344   -1.4050   -1.6683 H   0  0  0  0  0  0  0  0  0  0  0  0
    2.3455    1.9727    1.9085 H   0  0  0  0  0  0  0  0  0  0  0  0
    3.8888    0.2130   -1.6711 H   0  0  0  0  0  0  0  0  0  0  0  0
   -0.9505    1.1739   -2.0099 H   0  0  0  0  0  0  0  0  0  0  0  0
   -3.1887   -0.8663    1.0101 H   0  0  0  0  0  0  0  0  0  0  0  0
   -2.0781    3.2791   -1.4153 H   0  0  0  0  0  0  0  0  0  0  0  0
   -4.3140    1.2433    1.5931 H   0  0  0  0  0  0  0  0  0  0  0  0
   -3.7588    3.3126    0.3821 H   0  0  0  0  0  0  0  0  0  0  0  0
 13 20  1  0  0  0  0
  1 13  2  0  0  0  0
  2 13  1  0  0  0  0
 19 20  1  0  0  0  0
 16 20  2  0  0  0  0
 17 20  2  0  0  0  0
  1  3  1  0  0  0  0
  2  4  2  0  0  0  0
 14 19  1  0  0  0  0
  3 15  2  0  0  0  0
  5 14  2  0  0  0  0
  6 14  1  0  0  0  0
 15 18  1  0  0  0  0
  5  7  1  0  0  0  0
  6  8  2  0  0  0  0
  7  9  2  0  0  0  0
  4 15  1  0  0  0  0
  8  9  1  0  0  0  0
  1 21  1  0  0  0  0
  2 22  1  0  0  0  0
 10 19  1  0  0  0  0
  3 23  1  0  0  0  0
  4 24  1  0  0  0  0
  5 25  1  0  0  0  0
  6 26  1  0  0  0  0
 11 18  1  0  0  0  0
 12 18  1  0  0  0  0
  7 27  1  0  0  0  0
  8 28  1  0  0  0  0
  9 29  1  0  0  0  0
M  END
$$$$
