C10H11N3O3S
APtclcactv12211717233D 0   0.00000     0.00000
 
 28 29  0  0  0  0  0  0  0  0999 V2000
    2.3106    0.5128   -0.9422 C   0  0  0  0  0  0  0  0  0  0  0  0
    1.3349   -0.5220    0.9872 C   0  0  0  0  0  0  0  0  0  0  0  0
    3.2256   -0.5173   -1.0365 C   0  0  0  0  0  0  0  0  0  0  0  0
    2.2470   -1.5552    0.8988 C   0  0  0  0  0  0  0  0  0  0  0  0
   -3.0480   -0.1962   -0.9956 C   0  0  0  0  0  0  0  0  0  0  0  0
   -4.6019   -2.1608   -0.4863 C   0  0  0  0  0  0  0  0  0  0  0  0
   -1.3543    1.9029   -1.5074 H   0  0  0  0  0  0  0  0  0  0  0  0
    4.7830   -2.5998   -0.9159 H   0  0  0  0  0  0  0  0  0  0  0  0
    4.0993   -3.3249    0.4366 H   0  0  0  0  0  0  0  0  0  0  0  0
    1.3664    0.5107    0.0681 C   0  0  0  0  0  0  0  0  0  0  0  0
   -1.8921    0.3017   -0.3360 C   0  0  0  0  0  0  0  0  0  0  0  0
    3.1968   -1.5563   -0.1149 C   0  0  0  0  0  0  0  0  0  0  0  0
   -3.4229   -1.2546   -0.2423 C   0  0  0  0  0  0  0  0  0  0  0  0
   -0.2300    1.8625    1.5385 O   0  0  0  0  0  0  0  0  0  0  0  0
    0.7877    2.9418   -0.4732 O   0  0  0  0  0  0  0  0  0  0  0  0
    4.1204   -2.5999   -0.2075 N   0  0  0  0  0  0  0  0  0  0  0  0
   -1.7003   -0.4742    0.6992 N   0  0  0  0  0  0  0  0  0  0  0  0
   -1.1195    1.3944   -0.7154 N   0  0  0  0  0  0  0  0  0  0  0  0
    0.2012    1.8273    0.1850 S   0  0  0  0  0  0  0  0  0  0  0  0
   -2.5407   -1.3410    0.7640 O   0  0  0  0  0  0  0  0  0  0  0  0
    2.3353    1.3231   -1.6558 H   0  0  0  0  0  0  0  0  0  0  0  0
    0.5962   -0.5206    1.7750 H   0  0  0  0  0  0  0  0  0  0  0  0
    3.9625   -0.5153   -1.8260 H   0  0  0  0  0  0  0  0  0  0  0  0
    2.2218   -2.3615    1.6169 H   0  0  0  0  0  0  0  0  0  0  0  0
   -3.5203    0.1852   -1.8888 H   0  0  0  0  0  0  0  0  0  0  0  0
   -4.2944   -2.9954   -1.1163 H   0  0  0  0  0  0  0  0  0  0  0  0
   -4.9710   -2.5412    0.4662 H   0  0  0  0  0  0  0  0  0  0  0  0
   -5.3932   -1.6012   -0.9852 H   0  0  0  0  0  0  0  0  0  0  0  0
 10 19  1  0  0  0  0
  1 10  1  0  0  0  0
  2 10  2  0  0  0  0
 18 19  1  0  0  0  0
 14 19  2  0  0  0  0
 15 19  2  0  0  0  0
  1  3  2  0  0  0  0
  2  4  1  0  0  0  0
 11 18  1  0  0  0  0
  3 12  1  0  0  0  0
  5 11  1  0  0  0  0
 11 17  2  0  0  0  0
 12 16  1  0  0  0  0
  5 13  2  0  0  0  0
 17 20  1  0  0  0  0
  6 13  1  0  0  0  0
  4 12  2  0  0  0  0
 13 20  1  0  0  0  0
  1 21  1  0  0  0  0
  2 22  1  0  0  0  0
  7 18  1  0  0  0  0
  3 23  1  0  0  0  0
  4 24  1  0  0  0  0
  5 25  1  0  0  0  0
  8 16  1  0  0  0  0
  9 16  1  0  0  0  0
  6 26  1  0  0  0  0
  6 27  1  0  0  0  0
  6 28  1  0  0  0  0
M  END
$$$$
