C6H10O4
APtclcactv12211716563D 0   0.00000     0.00000
 
 20 19  0  0  0  0  0  0  0  0999 V2000
   -1.4599    1.9727   -0.1204 C   0  0  0  0  0  0  0  0  0  0  0  0
    1.4599    1.9727    0.1204 C   0  0  0  0  0  0  0  0  0  0  0  0
   -0.9280   -1.3023   -0.8598 O   0  0  0  0  0  0  0  0  0  0  0  0
    0.9280   -1.3023    0.8598 O   0  0  0  0  0  0  0  0  0  0  0  0
   -2.6980   -0.7194    0.3280 O   0  0  0  0  0  0  0  0  0  0  0  0
    2.6980   -0.7194   -0.3280 O   0  0  0  0  0  0  0  0  0  0  0  0
   -1.4484   -0.5070   -0.1138 C   0  0  0  0  0  0  0  0  0  0  0  0
    1.4484   -0.5070    0.1138 C   0  0  0  0  0  0  0  0  0  0  0  0
   -3.1412   -1.5225    0.0220 H   0  0  0  0  0  0  0  0  0  0  0  0
    3.1412   -1.5225   -0.0220 H   0  0  0  0  0  0  0  0  0  0  0  0
   -0.6946    0.7234    0.3206 C   0  0  0  0  0  0  0  0  0  0  0  0
    0.6946    0.7234   -0.3206 C   0  0  0  0  0  0  0  0  0  0  0  0
   -1.5608    1.9727   -1.2057 H   0  0  0  0  0  0  0  0  0  0  0  0
   -2.4495    1.9727    0.3364 H   0  0  0  0  0  0  0  0  0  0  0  0
   -0.9147    2.8627    0.1938 H   0  0  0  0  0  0  0  0  0  0  0  0
   -0.5937    0.7234    1.4060 H   0  0  0  0  0  0  0  0  0  0  0  0
    0.5937    0.7234   -1.4060 H   0  0  0  0  0  0  0  0  0  0  0  0
    1.5608    1.9727    1.2057 H   0  0  0  0  0  0  0  0  0  0  0  0
    2.4495    1.9727   -0.3364 H   0  0  0  0  0  0  0  0  0  0  0  0
    0.9147    2.8627   -0.1938 H   0  0  0  0  0  0  0  0  0  0  0  0
  5  7  1  0  0  0  0
  3  7  2  0  0  0  0
  7 11  1  0  0  0  0
  6  8  1  0  0  0  0
  4  8  2  0  0  0  0
  8 12  1  0  0  0  0
  1 11  1  0  0  0  0
 11 12  1  0  0  0  0
  2 12  1  0  0  0  0
  5  9  1  0  0  0  0
  6 10  1  0  0  0  0
  1 13  1  0  0  0  0
  1 14  1  0  0  0  0
  1 15  1  0  0  0  0
 11 16  1  0  0  0  0
 12 17  1  0  0  0  0
  2 18  1  0  0  0  0
  2 19  1  0  0  0  0
  2 20  1  0  0  0  0
M  END
$$$$
