C4H8Cl2O
APtclcactv12211716393D 0   0.00000     0.00000
 
 15 14  0  0  0  0  0  0  0  0999 V2000
    2.1995    0.2476    0.9895 C   0  0  0  0  0  0  0  0  0  0  0  0
    1.0930    1.1796    0.4917 C   0  0  0  0  0  0  0  0  0  0  0  0
   -1.0930    1.1796   -0.4917 C   0  0  0  0  0  0  0  0  0  0  0  0
   -2.1995    0.2476   -0.9895 C   0  0  0  0  0  0  0  0  0  0  0  0
   -0.0000    0.4013    0.0000 O   0  0  0  0  0  0  0  0  0  0  0  0
    2.8671   -0.6882   -0.3995 Cl  0  0  0  0  0  0  0  0  0  0  0  0
   -2.8671   -0.6882    0.3995 Cl  0  0  0  0  0  0  0  0  0  0  0  0
    2.9942    0.8382    1.4453 H   0  0  0  0  0  0  0  0  0  0  0  0
    1.7894   -0.4412    1.7281 H   0  0  0  0  0  0  0  0  0  0  0  0
    0.7505    1.8084    1.3135 H   0  0  0  0  0  0  0  0  0  0  0  0
    1.4808    1.8084   -0.3097 H   0  0  0  0  0  0  0  0  0  0  0  0
   -0.7505    1.8084   -1.3135 H   0  0  0  0  0  0  0  0  0  0  0  0
   -1.4808    1.8084    0.3097 H   0  0  0  0  0  0  0  0  0  0  0  0
   -2.9942    0.8382   -1.4453 H   0  0  0  0  0  0  0  0  0  0  0  0
   -1.7894   -0.4412   -1.7281 H   0  0  0  0  0  0  0  0  0  0  0  0
  1  6  1  0  0  0  0
  1  2  1  0  0  0  0
  2  5  1  0  0  0  0
  3  5  1  0  0  0  0
  3  4  1  0  0  0  0
  4  7  1  0  0  0  0
  1  8  1  0  0  0  0
  1  9  1  0  0  0  0
  2 10  1  0  0  0  0
  2 11  1  0  0  0  0
  3 12  1  0  0  0  0
  3 13  1  0  0  0  0
  4 14  1  0  0  0  0
  4 15  1  0  0  0  0
M  END
$$$$
