C6H12O6
APtclcactv12211716583D 0   0.00000     0.00000
 
 24 23  0  0  1  0  0  0  0  0999 V2000
    3.8833    1.0809    0.0743 O   0  0  0  0  0  0  0  0  0  0  0  0
    2.5592    0.9468   -0.4462 C   0  0  0  0  0  0  0  0  0  0  0  0
    1.9614   -0.3520    0.0300 C   0  0  0  0  0  0  0  0  0  0  0  0
    2.6030   -1.0869    0.7417 O   0  0  0  0  0  0  0  0  0  0  0  0
    0.5629   -0.7336   -0.3820 C   0  0  1  0  0  0  0  0  0  0  0  0
    0.4342   -0.5458   -1.4479 H   0  0  0  0  0  0  0  0  0  0  0  0
    0.3491   -2.1208   -0.1135 O   0  0  0  0  0  0  0  0  0  0  0  0
   -0.4471    0.1005    0.4085 C   0  0  1  0  0  0  0  0  0  0  0  0
   -0.3184   -0.0874    1.4745 H   0  0  0  0  0  0  0  0  0  0  0  0
   -0.2333    1.4876    0.1401 O   0  0  0  0  0  0  0  0  0  0  0  0
   -1.8669   -0.2870   -0.0097 C   0  0  2  0  0  0  0  0  0  0  0  0
   -2.0604   -1.3209    0.2759 H   0  0  0  0  0  0  0  0  0  0  0  0
   -2.0001   -0.1511   -1.4260 O   0  0  0  0  0  0  0  0  0  0  0  0
   -2.8726    0.6314    0.6875 C   0  0  0  0  0  0  0  0  0  0  0  0
   -4.2008    0.1970    0.3893 O   0  0  0  0  0  0  0  0  0  0  0  0
    4.3300    1.8960   -0.1923 H   0  0  0  0  0  0  0  0  0  0  0  0
    1.9461    1.7782   -0.0984 H   0  0  0  0  0  0  0  0  0  0  0  0
    2.5948    0.9526   -1.5357 H   0  0  0  0  0  0  0  0  0  0  0  0
    0.4477   -2.3609    0.8180 H   0  0  0  0  0  0  0  0  0  0  0  0
   -0.3319    1.7277   -0.7915 H   0  0  0  0  0  0  0  0  0  0  0  0
   -1.8413    0.7454   -1.7518 H   0  0  0  0  0  0  0  0  0  0  0  0
   -2.7116    0.5950    1.7650 H   0  0  0  0  0  0  0  0  0  0  0  0
   -2.7367    1.6536    0.3343 H   0  0  0  0  0  0  0  0  0  0  0  0
   -4.8920    0.7348    0.7994 H   0  0  0  0  0  0  0  0  0  0  0  0
  1  2  1  0  0  0  0
  2  3  1  0  0  0  0
  3  4  2  0  0  0  0
  3  5  1  0  0  0  0
  5  6  1  0  0  0  0
  5  7  1  0  0  0  0
  5  8  1  0  0  0  0
  8  9  1  0  0  0  0
  8 10  1  0  0  0  0
  8 11  1  0  0  0  0
 11 12  1  0  0  0  0
 11 13  1  0  0  0  0
 11 14  1  0  0  0  0
 14 15  1  0  0  0  0
  1 16  1  0  0  0  0
  2 17  1  0  0  0  0
  2 18  1  0  0  0  0
  7 19  1  0  0  0  0
 10 20  1  0  0  0  0
 13 21  1  0  0  0  0
 14 22  1  0  0  0  0
 14 23  1  0  0  0  0
 15 24  1  0  0  0  0
M  END
$$$$
