C14H6Cl2F4N2O2
APtclcactv12091702553D 0   0.00000     0.00000
 
 30 31  0  0  0  0  0  0  0  0999 V2000
    2.0553    0.9367    0.0821 C   0  0  0  0  0  0  0  0  0  0  0  0
   -6.2831   -1.0997   -0.6732 C   0  0  0  0  0  0  0  0  0  0  0  0
   -6.2418    0.2818    1.2893 C   0  0  0  0  0  0  0  0  0  0  0  0
   -6.9193   -0.5681    0.4339 C   0  0  0  0  0  0  0  0  0  0  0  0
    0.1888   -1.6065    0.9138 H   0  0  0  0  0  0  0  0  0  0  0  0
   -2.0882   -1.1147    0.7166 H   0  0  0  0  0  0  0  0  0  0  0  0
    1.7402   -0.4002    0.2788 C   0  0  0  0  0  0  0  0  0  0  0  0
    2.7524   -1.3523    0.3204 C   0  0  0  0  0  0  0  0  0  0  0  0
    4.0716   -0.9647    0.1657 C   0  0  0  0  0  0  0  0  0  0  0  0
    3.3750    1.3203   -0.0721 C   0  0  0  0  0  0  0  0  0  0  0  0
    4.3831    0.3713   -0.0301 C   0  0  0  0  0  0  0  0  0  0  0  0
   -4.2695    0.0740   -0.0739 C   0  0  0  0  0  0  0  0  0  0  0  0
   -4.9628   -0.7851   -0.9340 C   0  0  0  0  0  0  0  0  0  0  0  0
   -4.9212    0.6073    1.0439 C   0  0  0  0  0  0  0  0  0  0  0  0
   -0.3151    0.9356   -0.7636 O   0  0  0  0  0  0  0  0  0  0  0  0
   -2.5908    1.3824   -1.0300 O   0  0  0  0  0  0  0  0  0  0  0  0
   -0.5851   -0.0310   -0.0777 C   0  0  0  0  0  0  0  0  0  0  0  0
   -2.8608    0.4159   -0.3442 C   0  0  0  0  0  0  0  0  0  0  0  0
    5.3369   -2.1522    0.2175 Cl  0  0  0  0  0  0  0  0  0  0  0  0
    3.7686    2.9930   -0.3187 Cl  0  0  0  0  0  0  0  0  0  0  0  0
    0.4030   -0.7902    0.4357 N   0  0  0  0  0  0  0  0  0  0  0  0
   -1.8727   -0.3434    0.1693 N   0  0  0  0  0  0  0  0  0  0  0  0
    2.4483   -2.6546    0.5122 F   0  0  0  0  0  0  0  0  0  0  0  0
    5.6715    0.7486   -0.1806 F   0  0  0  0  0  0  0  0  0  0  0  0
   -4.3431   -1.3058   -2.0157 F   0  0  0  0  0  0  0  0  0  0  0  0
   -4.2612    1.4373    1.8809 F   0  0  0  0  0  0  0  0  0  0  0  0
    1.2698    1.6770    0.0450 H   0  0  0  0  0  0  0  0  0  0  0  0
   -6.8183   -1.7661   -1.3334 H   0  0  0  0  0  0  0  0  0  0  0  0
   -6.7464    0.6927    2.1512 H   0  0  0  0  0  0  0  0  0  0  0  0
   -7.9513   -0.8179    0.6314 H   0  0  0  0  0  0  0  0  0  0  0  0
  7  8  1  0  0  0  0
  1  7  2  0  0  0  0
  7 21  1  0  0  0  0
  8  9  2  0  0  0  0
  8 23  1  0  0  0  0
  1 10  1  0  0  0  0
 17 21  1  0  0  0  0
  9 11  1  0  0  0  0
  9 19  1  0  0  0  0
 10 20  1  0  0  0  0
 17 22  1  0  0  0  0
 15 17  2  0  0  0  0
 11 24  1  0  0  0  0
 18 22  1  0  0  0  0
 12 18  1  0  0  0  0
 16 18  2  0  0  0  0
 12 13  2  0  0  0  0
 12 14  1  0  0  0  0
  2 13  1  0  0  0  0
 13 25  1  0  0  0  0
  3 14  2  0  0  0  0
 14 26  1  0  0  0  0
  2  4  2  0  0  0  0
 10 11  2  0  0  0  0
  3  4  1  0  0  0  0
  1 27  1  0  0  0  0
  5 21  1  0  0  0  0
  6 22  1  0  0  0  0
  2 28  1  0  0  0  0
  3 29  1  0  0  0  0
  4 30  1  0  0  0  0
M  END
$$$$
