C16H20O6P2S3
APtclcactv12211717133D 0   0.00000     0.00000
 
 47 48  0  0  0  0  0  0  0  0999 V2000
   -2.5940    0.2308   -1.1075 C   0  0  0  0  0  0  0  0  0  0  0  0
   -3.8568    2.0843   -0.2438 C   0  0  0  0  0  0  0  0  0  0  0  0
   -1.4249    0.8231   -0.6725 C   0  0  0  0  0  0  0  0  0  0  0  0
   -2.6890    2.6784    0.1920 C   0  0  0  0  0  0  0  0  0  0  0  0
    1.9606    1.6261   -0.9930 C   0  0  0  0  0  0  0  0  0  0  0  0
    1.4815    0.5652    1.1123 C   0  0  0  0  0  0  0  0  0  0  0  0
    2.9152    0.6646   -1.2590 C   0  0  0  0  0  0  0  0  0  0  0  0
    2.4367   -0.3953    0.8443 C   0  0  0  0  0  0  0  0  0  0  0  0
   -6.7789   -0.3517    2.1576 C   0  0  0  0  0  0  0  0  0  0  0  0
   -7.3082   -2.7867   -0.3594 C   0  0  0  0  0  0  0  0  0  0  0  0
    6.6821   -0.5576    2.3230 C   0  0  0  0  0  0  0  0  0  0  0  0
    8.0543   -1.6232   -0.7635 C   0  0  0  0  0  0  0  0  0  0  0  0
   -3.8119    0.8598   -0.8942 C   0  0  0  0  0  0  0  0  0  0  0  0
   -1.4687    2.0494   -0.0211 C   0  0  0  0  0  0  0  0  0  0  0  0
    1.2403    1.5794    0.1940 C   0  0  0  0  0  0  0  0  0  0  0  0
    3.1550   -0.3480   -0.3415 C   0  0  0  0  0  0  0  0  0  0  0  0
   -4.9626    0.2758   -1.3234 O   0  0  0  0  0  0  0  0  0  0  0  0
   -6.3568    0.1887    0.9039 O   0  0  0  0  0  0  0  0  0  0  0  0
   -6.7498   -1.6188   -0.9645 O   0  0  0  0  0  0  0  0  0  0  0  0
    4.0948   -1.2950   -0.6049 O   0  0  0  0  0  0  0  0  0  0  0  0
    5.6318   -1.0987    1.5191 O   0  0  0  0  0  0  0  0  0  0  0  0
    6.6503   -1.8896   -0.7720 O   0  0  0  0  0  0  0  0  0  0  0  0
   -5.6476   -0.6968   -0.2385 P   0  0  0  0  0  0  0  0  0  0  0  0
    5.5693   -0.9181   -0.0795 P   0  0  0  0  0  0  0  0  0  0  0  0
    0.0222    2.8061    0.5349 S   0  0  0  0  0  0  0  0  0  0  0  0
   -4.3437   -1.7801    0.5354 S   0  0  0  0  0  0  0  0  0  0  0  0
    5.9523    0.8516   -0.5202 S   0  0  0  0  0  0  0  0  0  0  0  0
   -7.5116   -1.1400    1.9853 H   0  0  0  0  0  0  0  0  0  0  0  0
   -5.9180   -0.7644    2.6836 H   0  0  0  0  0  0  0  0  0  0  0  0
   -7.2289    0.4372    2.7603 H   0  0  0  0  0  0  0  0  0  0  0  0
   -6.5127   -3.5002   -0.1442 H   0  0  0  0  0  0  0  0  0  0  0  0
   -7.8096   -2.5109    0.5683 H   0  0  0  0  0  0  0  0  0  0  0  0
   -8.0282   -3.2400   -1.0407 H   0  0  0  0  0  0  0  0  0  0  0  0
   -2.5597   -0.7204   -1.6178 H   0  0  0  0  0  0  0  0  0  0  0  0
   -4.8055    2.5731   -0.0783 H   0  0  0  0  0  0  0  0  0  0  0  0
   -0.4769    0.3330   -0.8384 H   0  0  0  0  0  0  0  0  0  0  0  0
   -2.7242    3.6317    0.6983 H   0  0  0  0  0  0  0  0  0  0  0  0
    1.7770    2.4166   -1.7056 H   0  0  0  0  0  0  0  0  0  0  0  0
    0.9219    0.5278    2.0353 H   0  0  0  0  0  0  0  0  0  0  0  0
    3.4753    0.7006   -2.1817 H   0  0  0  0  0  0  0  0  0  0  0  0
    2.6246   -1.1836    1.5582 H   0  0  0  0  0  0  0  0  0  0  0  0
    7.6365   -0.9763    2.0037 H   0  0  0  0  0  0  0  0  0  0  0  0
    6.7047    0.5262    2.2098 H   0  0  0  0  0  0  0  0  0  0  0  0
    6.5062   -0.8102    3.3687 H   0  0  0  0  0  0  0  0  0  0  0  0
    8.5783   -2.4193   -1.2924 H   0  0  0  0  0  0  0  0  0  0  0  0
    8.2463   -0.6709   -1.2578 H   0  0  0  0  0  0  0  0  0  0  0  0
    8.4090   -1.5762    0.2661 H   0  0  0  0  0  0  0  0  0  0  0  0
 17 23  1  0  0  0  0
 18 23  1  0  0  0  0
 19 23  1  0  0  0  0
 23 26  2  0  0  0  0
 13 17  1  0  0  0  0
  9 18  1  0  0  0  0
 10 19  1  0  0  0  0
  1 13  2  0  0  0  0
  2 13  1  0  0  0  0
  1  3  1  0  0  0  0
  2  4  2  0  0  0  0
  3 14  2  0  0  0  0
 14 25  1  0  0  0  0
 15 25  1  0  0  0  0
  5 15  2  0  0  0  0
  6 15  1  0  0  0  0
  5  7  1  0  0  0  0
  6  8  2  0  0  0  0
  7 16  2  0  0  0  0
 16 20  1  0  0  0  0
 20 24  1  0  0  0  0
 21 24  1  0  0  0  0
 22 24  1  0  0  0  0
 24 27  2  0  0  0  0
 11 21  1  0  0  0  0
 12 22  1  0  0  0  0
  4 14  1  0  0  0  0
  8 16  1  0  0  0  0
  9 28  1  0  0  0  0
  9 29  1  0  0  0  0
  9 30  1  0  0  0  0
 10 31  1  0  0  0  0
 10 32  1  0  0  0  0
 10 33  1  0  0  0  0
  1 34  1  0  0  0  0
  2 35  1  0  0  0  0
  3 36  1  0  0  0  0
  4 37  1  0  0  0  0
  5 38  1  0  0  0  0
  6 39  1  0  0  0  0
  7 40  1  0  0  0  0
  8 41  1  0  0  0  0
 11 42  1  0  0  0  0
 11 43  1  0  0  0  0
 11 44  1  0  0  0  0
 12 45  1  0  0  0  0
 12 46  1  0  0  0  0
 12 47  1  0  0  0  0
M  END
$$$$
