C13H11N3O4S2
APtclcactv12071713253D 0   0.00000     0.00000
 
 33 35  0  0  0  0  0  0  0  0999 V2000
    3.9926    1.0461    0.3510 C   0  0  0  0  0  0  0  0  0  0  0  0
    3.8958    2.3743    0.4756 C   0  0  0  0  0  0  0  0  0  0  0  0
   -3.5960   -0.4442    0.8301 C   0  0  0  0  0  0  0  0  0  0  0  0
   -4.8083   -0.2181    1.4577 C   0  0  0  0  0  0  0  0  0  0  0  0
   -5.3980    1.2178   -0.3597 C   0  0  0  0  0  0  0  0  0  0  0  0
   -5.7224    0.6297    0.8471 C   0  0  0  0  0  0  0  0  0  0  0  0
    0.4974   -2.7733    0.9138 C   0  0  0  0  0  0  0  0  0  0  0  0
   -1.8992    0.4621   -1.8283 H   0  0  0  0  0  0  0  0  0  0  0  0
   -1.8218   -2.7039   -1.1872 H   0  0  0  0  0  0  0  0  0  0  0  0
   -3.3359    0.1818   -0.3842 C   0  0  0  0  0  0  0  0  0  0  0  0
    2.7433   -1.6224   -1.5169 O   0  0  0  0  0  0  0  0  0  0  0  0
    3.3071   -2.0094    0.8932 O   0  0  0  0  0  0  0  0  0  0  0  0
   -0.5002    1.5994   -0.5505 O   0  0  0  0  0  0  0  0  0  0  0  0
   -1.6171   -2.2462   -0.3604 O   0  0  0  0  0  0  0  0  0  0  0  0
   -1.2337   -0.9603   -0.5241 C   0  0  0  0  0  0  0  0  0  0  0  0
    0.0333   -0.5784   -0.1910 C   0  0  0  0  0  0  0  0  0  0  0  0
    0.3640    0.7866   -0.2610 C   0  0  0  0  0  0  0  0  0  0  0  0
    2.8157    0.3925    0.0918 C   0  0  0  0  0  0  0  0  0  0  0  0
    1.7326    1.2517    0.0079 C   0  0  0  0  0  0  0  0  0  0  0  0
   -2.1206   -0.0368   -1.0264 N   0  0  0  0  0  0  0  0  0  0  0  0
    0.9551   -1.5726    0.2102 N   0  0  0  0  0  0  0  0  0  0  0  0
   -4.2343    0.9837   -0.9351 N   0  0  0  0  0  0  0  0  0  0  0  0
    2.2832    2.8937    0.2700 S   0  0  0  0  0  0  0  0  0  0  0  0
    2.5727   -1.3543   -0.1319 S   0  0  0  0  0  0  0  0  0  0  0  0
    4.9339    0.5248    0.4437 H   0  0  0  0  0  0  0  0  0  0  0  0
    1.3132   -3.1756    1.5144 H   0  0  0  0  0  0  0  0  0  0  0  0
   -0.3398   -2.5170    1.5631 H   0  0  0  0  0  0  0  0  0  0  0  0
    0.1782   -3.5206    0.1873 H   0  0  0  0  0  0  0  0  0  0  0  0
    4.7283    3.0313    0.6799 H   0  0  0  0  0  0  0  0  0  0  0  0
   -2.8601   -1.0946    1.2792 H   0  0  0  0  0  0  0  0  0  0  0  0
   -5.0382   -0.6907    2.4012 H   0  0  0  0  0  0  0  0  0  0  0  0
   -6.1064    1.8774   -0.8387 H   0  0  0  0  0  0  0  0  0  0  0  0
   -6.6777    0.8269    1.3107 H   0  0  0  0  0  0  0  0  0  0  0  0
 11 24  2  0  0  0  0
 12 24  2  0  0  0  0
 21 24  1  0  0  0  0
 18 24  1  0  0  0  0
 19 23  1  0  0  0  0
  2 23  1  0  0  0  0
 13 17  2  0  0  0  0
 14 15  1  0  0  0  0
  9 14  1  0  0  0  0
 16 21  1  0  0  0  0
  7 21  1  0  0  0  0
 15 20  1  0  0  0  0
 10 20  1  0  0  0  0
  8 20  1  0  0  0  0
 10 22  1  0  0  0  0
  5 22  2  0  0  0  0
 18 19  2  0  0  0  0
  1 18  1  0  0  0  0
 16 17  1  0  0  0  0
 15 16  2  0  0  0  0
 17 19  1  0  0  0  0
  1  2  2  0  0  0  0
  1 25  1  0  0  0  0
  7 26  1  0  0  0  0
  7 27  1  0  0  0  0
  7 28  1  0  0  0  0
  2 29  1  0  0  0  0
  3 10  2  0  0  0  0
  3  4  1  0  0  0  0
  3 30  1  0  0  0  0
  4  6  2  0  0  0  0
  4 31  1  0  0  0  0
  5  6  1  0  0  0  0
  5 32  1  0  0  0  0
  6 33  1  0  0  0  0
M  END
$$$$
