C9H16ClN5
APtclcactv12151716503D 0   0.00000     0.00000
 
 31 31  0  0  0  0  0  0  0  0999 V2000
    4.0815    0.5546    0.0012 C   0  0  0  0  0  0  0  0  0  0  0  0
   -3.2443   -0.1349    1.2468 C   0  0  0  0  0  0  0  0  0  0  0  0
   -3.2477   -0.1254   -1.2516 C   0  0  0  0  0  0  0  0  0  0  0  0
   -4.2810    1.7700    0.0063 C   0  0  0  0  0  0  0  0  0  0  0  0
    5.2723    1.5152    0.0013 C   0  0  0  0  0  0  0  0  0  0  0  0
   -1.8325    2.4177    0.0053 H   0  0  0  0  0  0  0  0  0  0  0  0
    2.8619    2.2926   -0.0010 H   0  0  0  0  0  0  0  0  0  0  0  0
   -0.6790    0.7286   -0.0027 C   0  0  0  0  0  0  0  0  0  0  0  0
    1.6199    0.6674   -0.0006 C   0  0  0  0  0  0  0  0  0  0  0  0
    0.4174   -1.2922   -0.0008 C   0  0  0  0  0  0  0  0  0  0  0  0
    0.3711   -3.0275    0.0005 Cl  0  0  0  0  0  0  0  0  0  0  0  0
    0.4883    1.3635   -0.0019 N   0  0  0  0  0  0  0  0  0  0  0  0
   -0.7112   -0.6017   -0.0022 N   0  0  0  0  0  0  0  0  0  0  0  0
    1.5811   -0.6630   -0.0001 N   0  0  0  0  0  0  0  0  0  0  0  0
   -3.1431    0.7472    0.0008 C   0  0  0  0  0  0  0  0  0  0  0  0
   -1.8566    1.4480    0.0017 N   0  0  0  0  0  0  0  0  0  0  0  0
    2.8342    1.3230   -0.0003 N   0  0  0  0  0  0  0  0  0  0  0  0
   -3.1697    0.4868    2.1391 H   0  0  0  0  0  0  0  0  0  0  0  0
   -4.2015   -0.6563    1.2462 H   0  0  0  0  0  0  0  0  0  0  0  0
   -2.4336   -0.8635    1.2429 H   0  0  0  0  0  0  0  0  0  0  0  0
   -2.4371   -0.8540   -1.2555 H   0  0  0  0  0  0  0  0  0  0  0  0
   -4.2050   -0.6468   -1.2523 H   0  0  0  0  0  0  0  0  0  0  0  0
   -3.1757    0.5030   -2.1393 H   0  0  0  0  0  0  0  0  0  0  0  0
   -4.2090    2.3984   -0.8814 H   0  0  0  0  0  0  0  0  0  0  0  0
   -5.2382    1.2486    0.0056 H   0  0  0  0  0  0  0  0  0  0  0  0
   -4.2065    2.3916    0.8985 H   0  0  0  0  0  0  0  0  0  0  0  0
    4.1219   -0.0742   -0.8883 H   0  0  0  0  0  0  0  0  0  0  0  0
    4.1207   -0.0728    0.8917 H   0  0  0  0  0  0  0  0  0  0  0  0
    6.2003    0.9435    0.0024 H   0  0  0  0  0  0  0  0  0  0  0  0
    5.2331    2.1426   -0.8892 H   0  0  0  0  0  0  0  0  0  0  0  0
    5.2318    2.1439    0.8908 H   0  0  0  0  0  0  0  0  0  0  0  0
 10 11  1  0  0  0  0
  8 12  1  0  0  0  0
  9 12  2  0  0  0  0
  8 13  2  0  0  0  0
 10 13  1  0  0  0  0
  8 16  1  0  0  0  0
 15 16  1  0  0  0  0
  9 14  1  0  0  0  0
 10 14  2  0  0  0  0
  9 17  1  0  0  0  0
  1 17  1  0  0  0  0
  2 15  1  0  0  0  0
  3 15  1  0  0  0  0
  4 15  1  0  0  0  0
  1  5  1  0  0  0  0
  6 16  1  0  0  0  0
  7 17  1  0  0  0  0
  2 18  1  0  0  0  0
  2 19  1  0  0  0  0
  2 20  1  0  0  0  0
  3 21  1  0  0  0  0
  3 22  1  0  0  0  0
  3 23  1  0  0  0  0
  4 24  1  0  0  0  0
  4 25  1  0  0  0  0
  4 26  1  0  0  0  0
  1 27  1  0  0  0  0
  1 28  1  0  0  0  0
  5 29  1  0  0  0  0
  5 30  1  0  0  0  0
  5 31  1  0  0  0  0
M  END
$$$$
