C9H21O2PS3
APtclcactv12151716533D 0   0.00000     0.00000
 
 36 35  0  0  0  0  0  0  0  0999 V2000
   -0.7643   -1.6849    0.1595 C   0  0  0  0  0  0  0  0  0  0  0  0
   -0.2901    2.2838    0.3153 C   0  0  0  0  0  0  0  0  0  0  0  0
    3.4203   -1.4646    0.2641 C   0  0  0  0  0  0  0  0  0  0  0  0
   -0.7012    3.2657    1.4143 C   0  0  0  0  0  0  0  0  0  0  0  0
    4.0707   -2.2434    1.4092 C   0  0  0  0  0  0  0  0  0  0  0  0
   -3.8911   -1.8281   -0.4080 C   0  0  0  0  0  0  0  0  0  0  0  0
   -2.7894    0.1435   -1.4762 C   0  0  0  0  0  0  0  0  0  0  0  0
   -4.3732    0.4768    0.4271 C   0  0  0  0  0  0  0  0  0  0  0  0
    0.7779    1.4602    0.7876 O   0  0  0  0  0  0  0  0  0  0  0  0
    2.4095   -0.6014    0.7889 O   0  0  0  0  0  0  0  0  0  0  0  0
   -3.2970   -0.4408   -0.1565 C   0  0  0  0  0  0  0  0  0  0  0  0
    1.5181    0.3689   -0.1363 P   0  0  0  0  0  0  0  0  0  0  0  0
    0.0685   -0.7790   -1.1733 S   0  0  0  0  0  0  0  0  0  0  0  0
   -1.9183   -0.5768    1.0146 S   0  0  0  0  0  0  0  0  0  0  0  0
    2.6172    1.2380   -1.3648 S   0  0  0  0  0  0  0  0  0  0  0  0
   -1.3138   -2.5269   -0.2616 H   0  0  0  0  0  0  0  0  0  0  0  0
   -0.0220   -2.0531    0.8676 H   0  0  0  0  0  0  0  0  0  0  0  0
   -1.1420    1.6576    0.0503 H   0  0  0  0  0  0  0  0  0  0  0  0
    0.0401    2.8388   -0.5628 H   0  0  0  0  0  0  0  0  0  0  0  0
    4.1772   -0.8693   -0.2465 H   0  0  0  0  0  0  0  0  0  0  0  0
    2.9708   -2.1634   -0.4414 H   0  0  0  0  0  0  0  0  0  0  0  0
   -1.5158    3.8940    1.0541 H   0  0  0  0  0  0  0  0  0  0  0  0
   -1.0313    2.7108    2.2925 H   0  0  0  0  0  0  0  0  0  0  0  0
    0.1507    3.8919    1.6794 H   0  0  0  0  0  0  0  0  0  0  0  0
    4.5202   -1.5446    2.1146 H   0  0  0  0  0  0  0  0  0  0  0  0
    3.3138   -2.8387    1.9197 H   0  0  0  0  0  0  0  0  0  0  0  0
    4.8417   -2.9018    1.0088 H   0  0  0  0  0  0  0  0  0  0  0  0
   -4.2528   -2.2444    0.5322 H   0  0  0  0  0  0  0  0  0  0  0  0
   -4.7196   -1.7464   -1.1117 H   0  0  0  0  0  0  0  0  0  0  0  0
   -3.1244   -2.4818   -0.8238 H   0  0  0  0  0  0  0  0  0  0  0  0
   -2.0226   -0.5102   -1.8920 H   0  0  0  0  0  0  0  0  0  0  0  0
   -3.6178    0.2252   -2.1799 H   0  0  0  0  0  0  0  0  0  0  0  0
   -2.3661    1.1319   -1.2970 H   0  0  0  0  0  0  0  0  0  0  0  0
   -3.9499    1.4651    0.6063 H   0  0  0  0  0  0  0  0  0  0  0  0
   -5.2016    0.5585   -0.2765 H   0  0  0  0  0  0  0  0  0  0  0  0
   -4.7348    0.0605    1.3674 H   0  0  0  0  0  0  0  0  0  0  0  0
 12 13  1  0  0  0  0
  1 13  1  0  0  0  0
  9 12  1  0  0  0  0
 10 12  1  0  0  0  0
 12 15  2  0  0  0  0
  2  9  1  0  0  0  0
  3 10  1  0  0  0  0
  1 14  1  0  0  0  0
  2  4  1  0  0  0  0
  3  5  1  0  0  0  0
 11 14  1  0  0  0  0
  6 11  1  0  0  0  0
  7 11  1  0  0  0  0
  8 11  1  0  0  0  0
  1 16  1  0  0  0  0
  1 17  1  0  0  0  0
  2 18  1  0  0  0  0
  2 19  1  0  0  0  0
  3 20  1  0  0  0  0
  3 21  1  0  0  0  0
  4 22  1  0  0  0  0
  4 23  1  0  0  0  0
  4 24  1  0  0  0  0
  5 25  1  0  0  0  0
  5 26  1  0  0  0  0
  5 27  1  0  0  0  0
  6 28  1  0  0  0  0
  6 29  1  0  0  0  0
  6 30  1  0  0  0  0
  7 31  1  0  0  0  0
  7 32  1  0  0  0  0
  7 33  1  0  0  0  0
  8 34  1  0  0  0  0
  8 35  1  0  0  0  0
  8 36  1  0  0  0  0
M  END
$$$$
