C7H15NO2
APtclcactv12151716233D 0   0.00000     0.00000
 
 25 24  0  0  0  0  0  0  0  0999 V2000
   -1.8675   -0.5190    0.0141 C   0  0  0  0  0  0  0  0  0  0  0  0
   -2.6439   -1.6067    0.1886 N   0  0  0  0  0  0  0  0  0  0  0  0
   -0.5611   -0.5656    0.3365 O   0  0  0  0  0  0  0  0  0  0  0  0
    0.2143    0.6431    0.1221 C   0  0  0  0  0  0  0  0  0  0  0  0
    0.1699    1.0215   -1.3597 C   0  0  0  0  0  0  0  0  0  0  0  0
   -0.3747    1.7818    0.9571 C   0  0  0  0  0  0  0  0  0  0  0  0
    1.6650    0.3997    0.5430 C   0  0  0  0  0  0  0  0  0  0  0  0
    2.2926   -0.6519   -0.3743 C   0  0  0  0  0  0  0  0  0  0  0  0
    3.7433   -0.8953    0.0466 C   0  0  0  0  0  0  0  0  0  0  0  0
   -2.3454    0.5023   -0.4388 O   0  0  0  0  0  0  0  0  0  0  0  0
   -2.2615   -2.4232    0.5464 H   0  0  0  0  0  0  0  0  0  0  0  0
   -3.5851   -1.5731   -0.0437 H   0  0  0  0  0  0  0  0  0  0  0  0
   -0.8636    1.1949   -1.6595 H   0  0  0  0  0  0  0  0  0  0  0  0
    0.7520    1.9288   -1.5206 H   0  0  0  0  0  0  0  0  0  0  0  0
    0.5895    0.2102   -1.9546 H   0  0  0  0  0  0  0  0  0  0  0  0
   -0.3430    1.5122    2.0128 H   0  0  0  0  0  0  0  0  0  0  0  0
    0.2074    2.6891    0.7962 H   0  0  0  0  0  0  0  0  0  0  0  0
   -1.4082    1.9552    0.6573 H   0  0  0  0  0  0  0  0  0  0  0  0
    2.2267    1.3306    0.4661 H   0  0  0  0  0  0  0  0  0  0  0  0
    1.6897    0.0444    1.5732 H   0  0  0  0  0  0  0  0  0  0  0  0
    1.7309   -1.5828   -0.2974 H   0  0  0  0  0  0  0  0  0  0  0  0
    2.2679   -0.2966   -1.4045 H   0  0  0  0  0  0  0  0  0  0  0  0
    4.3050    0.0357   -0.0303 H   0  0  0  0  0  0  0  0  0  0  0  0
    3.7680   -1.2505    1.0768 H   0  0  0  0  0  0  0  0  0  0  0  0
    4.1904   -1.6444   -0.6068 H   0  0  0  0  0  0  0  0  0  0  0  0
  1  2  1  0  0  0  0
  1  3  1  0  0  0  0
  3  4  1  0  0  0  0
  4  5  1  0  0  0  0
  4  6  1  0  0  0  0
  4  7  1  0  0  0  0
  7  8  1  0  0  0  0
  8  9  1  0  0  0  0
  1 10  2  0  0  0  0
  2 11  1  0  0  0  0
  2 12  1  0  0  0  0
  5 13  1  0  0  0  0
  5 14  1  0  0  0  0
  5 15  1  0  0  0  0
  6 16  1  0  0  0  0
  6 17  1  0  0  0  0
  6 18  1  0  0  0  0
  7 19  1  0  0  0  0
  7 20  1  0  0  0  0
  8 21  1  0  0  0  0
  8 22  1  0  0  0  0
  9 23  1  0  0  0  0
  9 24  1  0  0  0  0
  9 25  1  0  0  0  0
M  END
$$$$
