C6H13NO2
APtclcactv12211716593D 0   0.00000     0.00000
 
 22 21  0  0  0  0  0  0  0  0999 V2000
   -1.5590    0.2648   -0.0108 C   0  0  0  0  0  0  0  0  0  0  0  0
   -2.5670    1.1396   -0.1986 N   0  0  0  0  0  0  0  0  0  0  0  0
   -0.3025    0.6007   -0.3589 O   0  0  0  0  0  0  0  0  0  0  0  0
    0.7328   -0.3908   -0.1280 C   0  0  0  0  0  0  0  0  0  0  0  0
    0.7950   -0.7254    1.3637 C   0  0  0  0  0  0  0  0  0  0  0  0
    0.4111   -1.6585   -0.9220 C   0  0  0  0  0  0  0  0  0  0  0  0
    2.0832    0.1666   -0.5823 C   0  0  0  0  0  0  0  0  0  0  0  0
    2.4634    1.3608    0.2954 C   0  0  0  0  0  0  0  0  0  0  0  0
   -1.7835   -0.8250    0.4774 O   0  0  0  0  0  0  0  0  0  0  0  0
   -2.3871    2.0112   -0.5846 H   0  0  0  0  0  0  0  0  0  0  0  0
   -3.4722    0.8977    0.0522 H   0  0  0  0  0  0  0  0  0  0  0  0
   -0.1671   -1.1225    1.6874 H   0  0  0  0  0  0  0  0  0  0  0  0
    1.5722   -1.4697    1.5371 H   0  0  0  0  0  0  0  0  0  0  0  0
    1.0241    0.1777    1.9294 H   0  0  0  0  0  0  0  0  0  0  0  0
    0.3668   -1.4202   -1.9847 H   0  0  0  0  0  0  0  0  0  0  0  0
    1.1883   -2.4028   -0.7486 H   0  0  0  0  0  0  0  0  0  0  0  0
   -0.5510   -2.0556   -0.5982 H   0  0  0  0  0  0  0  0  0  0  0  0
    2.8449   -0.6078   -0.4920 H   0  0  0  0  0  0  0  0  0  0  0  0
    2.0127    0.4874   -1.6217 H   0  0  0  0  0  0  0  0  0  0  0  0
    1.7017    2.1352    0.2050 H   0  0  0  0  0  0  0  0  0  0  0  0
    2.5339    1.0399    1.3347 H   0  0  0  0  0  0  0  0  0  0  0  0
    3.4255    1.7579   -0.0283 H   0  0  0  0  0  0  0  0  0  0  0  0
  1  2  1  0  0  0  0
  1  3  1  0  0  0  0
  3  4  1  0  0  0  0
  4  5  1  0  0  0  0
  4  6  1  0  0  0  0
  4  7  1  0  0  0  0
  7  8  1  0  0  0  0
  1  9  2  0  0  0  0
  2 10  1  0  0  0  0
  2 11  1  0  0  0  0
  5 12  1  0  0  0  0
  5 13  1  0  0  0  0
  5 14  1  0  0  0  0
  6 15  1  0  0  0  0
  6 16  1  0  0  0  0
  6 17  1  0  0  0  0
  7 18  1  0  0  0  0
  7 19  1  0  0  0  0
  8 20  1  0  0  0  0
  8 21  1  0  0  0  0
  8 22  1  0  0  0  0
M  END
$$$$
