C11H16
APtclcactv12211717353D 0   0.00000     0.00000
 
 27 27  0  0  0  0  0  0  0  0999 V2000
   -1.1222    0.2996   -0.0001 C   0  0  0  0  0  0  0  0  0  0  0  0
   -1.5244    1.0877   -1.2483 C   0  0  0  0  0  0  0  0  0  0  0  0
   -1.5239    1.0848    1.2502 C   0  0  0  0  0  0  0  0  0  0  0  0
   -1.8328   -1.0554   -0.0015 C   0  0  0  0  0  0  0  0  0  0  0  0
   -3.3472   -0.8371   -0.0010 C   0  0  0  0  0  0  0  0  0  0  0  0
    0.3693    0.0847   -0.0006 C   0  0  0  0  0  0  0  0  0  0  0  0
    1.2242    1.1710    0.0005 C   0  0  0  0  0  0  0  0  0  0  0  0
    2.5924    0.9738   -0.0000 C   0  0  0  0  0  0  0  0  0  0  0  0
    3.1058   -0.3097   -0.0012 C   0  0  0  0  0  0  0  0  0  0  0  0
    2.2509   -1.3960   -0.0014 C   0  0  0  0  0  0  0  0  0  0  0  0
    0.8827   -1.1988    0.0035 C   0  0  0  0  0  0  0  0  0  0  0  0
   -1.0182    2.0531   -1.2472 H   0  0  0  0  0  0  0  0  0  0  0  0
   -1.2382    0.5284   -2.1390 H   0  0  0  0  0  0  0  0  0  0  0  0
   -2.6032    1.2432   -1.2479 H   0  0  0  0  0  0  0  0  0  0  0  0
   -2.6028    1.2403    1.2506 H   0  0  0  0  0  0  0  0  0  0  0  0
   -1.2374    0.5233    2.1394 H   0  0  0  0  0  0  0  0  0  0  0  0
   -1.0177    2.0501    1.2512 H   0  0  0  0  0  0  0  0  0  0  0  0
   -1.5466   -1.6147   -0.8923 H   0  0  0  0  0  0  0  0  0  0  0  0
   -1.5463   -1.6168    0.8877 H   0  0  0  0  0  0  0  0  0  0  0  0
   -3.6333   -0.2778    0.8897 H   0  0  0  0  0  0  0  0  0  0  0  0
   -3.6336   -0.2756   -0.8903 H   0  0  0  0  0  0  0  0  0  0  0  0
   -3.8534   -1.8024   -0.0021 H   0  0  0  0  0  0  0  0  0  0  0  0
    0.8232    2.1738    0.0015 H   0  0  0  0  0  0  0  0  0  0  0  0
    3.2603    1.8225    0.0002 H   0  0  0  0  0  0  0  0  0  0  0  0
    4.1747   -0.4638   -0.0024 H   0  0  0  0  0  0  0  0  0  0  0  0
    2.6519   -2.3988   -0.0027 H   0  0  0  0  0  0  0  0  0  0  0  0
    0.2148   -2.0475    0.0033 H   0  0  0  0  0  0  0  0  0  0  0  0
  1  2  1  0  0  0  0
  1  3  1  0  0  0  0
  1  4  1  0  0  0  0
  4  5  1  0  0  0  0
  1  6  1  0  0  0  0
  6  7  2  0  0  0  0
  7  8  1  0  0  0  0
  8  9  2  0  0  0  0
  9 10  1  0  0  0  0
 10 11  2  0  0  0  0
  6 11  1  0  0  0  0
  2 12  1  0  0  0  0
  2 13  1  0  0  0  0
  2 14  1  0  0  0  0
  3 15  1  0  0  0  0
  3 16  1  0  0  0  0
  3 17  1  0  0  0  0
  4 18  1  0  0  0  0
  4 19  1  0  0  0  0
  5 20  1  0  0  0  0
  5 21  1  0  0  0  0
  5 22  1  0  0  0  0
  7 23  1  0  0  0  0
  8 24  1  0  0  0  0
  9 25  1  0  0  0  0
 10 26  1  0  0  0  0
 11 27  1  0  0  0  0
M  END
$$$$
