C10H12
APtclcactv12211717233D 0   0.00000     0.00000
 
 22 23  0  0  0  0  0  0  0  0999 V2000
   -1.1902   -1.4972   -0.0777 C   0  0  0  0  0  0  0  0  0  0  0  0
   -2.3783   -0.6594    0.3906 C   0  0  0  0  0  0  0  0  0  0  0  0
   -2.3780    0.6595   -0.3913 C   0  0  0  0  0  0  0  0  0  0  0  0
   -1.1902    1.4973    0.0778 C   0  0  0  0  0  0  0  0  0  0  0  0
    0.0793    0.6878    0.0338 C   0  0  0  0  0  0  0  0  0  0  0  0
    1.2858    1.3747    0.0640 C   0  0  0  0  0  0  0  0  0  0  0  0
    2.4834    0.6904    0.0312 C   0  0  0  0  0  0  0  0  0  0  0  0
    2.4834   -0.6904   -0.0318 C   0  0  0  0  0  0  0  0  0  0  0  0
    1.2857   -1.3748   -0.0638 C   0  0  0  0  0  0  0  0  0  0  0  0
    0.0793   -0.6877   -0.0323 C   0  0  0  0  0  0  0  0  0  0  0  0
   -1.0854   -2.3667    0.5712 H   0  0  0  0  0  0  0  0  0  0  0  0
   -1.3669   -1.8317   -1.1000 H   0  0  0  0  0  0  0  0  0  0  0  0
   -3.3059   -1.1991    0.1999 H   0  0  0  0  0  0  0  0  0  0  0  0
   -2.2850   -0.4540    1.4570 H   0  0  0  0  0  0  0  0  0  0  0  0
   -2.2839    0.4540   -1.4577 H   0  0  0  0  0  0  0  0  0  0  0  0
   -3.3058    1.1991   -0.2014 H   0  0  0  0  0  0  0  0  0  0  0  0
   -1.0848    2.3666   -0.5712 H   0  0  0  0  0  0  0  0  0  0  0  0
   -1.3678    1.8320    1.0998 H   0  0  0  0  0  0  0  0  0  0  0  0
    1.2867    2.4536    0.1133 H   0  0  0  0  0  0  0  0  0  0  0  0
    3.4177    1.2317    0.0542 H   0  0  0  0  0  0  0  0  0  0  0  0
    3.4176   -1.2318   -0.0563 H   0  0  0  0  0  0  0  0  0  0  0  0
    1.2865   -2.4536   -0.1140 H   0  0  0  0  0  0  0  0  0  0  0  0
  1  2  1  0  0  0  0
  2  3  1  0  0  0  0
  3  4  1  0  0  0  0
  4  5  1  0  0  0  0
  5  6  2  0  0  0  0
  6  7  1  0  0  0  0
  7  8  2  0  0  0  0
  8  9  1  0  0  0  0
  9 10  2  0  0  0  0
  1 10  1  0  0  0  0
  5 10  1  0  0  0  0
  1 11  1  0  0  0  0
  1 12  1  0  0  0  0
  2 13  1  0  0  0  0
  2 14  1  0  0  0  0
  3 15  1  0  0  0  0
  3 16  1  0  0  0  0
  4 17  1  0  0  0  0
  4 18  1  0  0  0  0
  6 19  1  0  0  0  0
  7 20  1  0  0  0  0
  8 21  1  0  0  0  0
  9 22  1  0  0  0  0
M  END
$$$$
