C8H23N5
APtclcactv12151716413D 0   0.00000     0.00000
 
 36 35  0  0  0  0  0  0  0  0999 V2000
    7.3172    0.3486   -0.0391 N   0  0  0  0  0  0  0  0  0  0  0  0
    6.1066   -0.4815    0.0177 C   0  0  0  0  0  0  0  0  0  0  0  0
    4.8693    0.4168   -0.0365 C   0  0  0  0  0  0  0  0  0  0  0  0
    3.6586   -0.4133    0.0203 N   0  0  0  0  0  0  0  0  0  0  0  0
    2.4480    0.4172   -0.0296 C   0  0  0  0  0  0  0  0  0  0  0  0
    1.2106   -0.4806    0.0316 C   0  0  0  0  0  0  0  0  0  0  0  0
    0.0000    0.3499   -0.0183 N   0  0  0  0  0  0  0  0  0  0  0  0
   -1.2106   -0.4802    0.0385 C   0  0  0  0  0  0  0  0  0  0  0  0
   -2.4480    0.4181   -0.0157 C   0  0  0  0  0  0  0  0  0  0  0  0
   -3.6586   -0.4120    0.0411 N   0  0  0  0  0  0  0  0  0  0  0  0
   -4.8692    0.4186   -0.0088 C   0  0  0  0  0  0  0  0  0  0  0  0
   -6.1066   -0.4793    0.0524 C   0  0  0  0  0  0  0  0  0  0  0  0
   -7.3172    0.3513    0.0025 N   0  0  0  0  0  0  0  0  0  0  0  0
    7.3195    1.0358    0.6997 H   0  0  0  0  0  0  0  0  0  0  0  0
    8.1488   -0.2219   -0.0048 H   0  0  0  0  0  0  0  0  0  0  0  0
    6.0957   -1.1665   -0.8301 H   0  0  0  0  0  0  0  0  0  0  0  0
    6.1007   -1.0525    0.9462 H   0  0  0  0  0  0  0  0  0  0  0  0
    4.8802    1.1018    0.8113 H   0  0  0  0  0  0  0  0  0  0  0  0
    4.8751    0.9877   -0.9650 H   0  0  0  0  0  0  0  0  0  0  0  0
    3.6564   -1.1005   -0.7186 H   0  0  0  0  0  0  0  0  0  0  0  0
    2.4421    1.1022    0.8182 H   0  0  0  0  0  0  0  0  0  0  0  0
    2.4371    0.9882   -0.9581 H   0  0  0  0  0  0  0  0  0  0  0  0
    1.2165   -1.1656   -0.8163 H   0  0  0  0  0  0  0  0  0  0  0  0
    1.2216   -1.0516    0.9600 H   0  0  0  0  0  0  0  0  0  0  0  0
    0.0022    1.0371    0.7205 H   0  0  0  0  0  0  0  0  0  0  0  0
   -1.2216   -1.1652   -0.8093 H   0  0  0  0  0  0  0  0  0  0  0  0
   -1.2165   -1.0511    0.9670 H   0  0  0  0  0  0  0  0  0  0  0  0
   -2.4370    1.1031    0.8321 H   0  0  0  0  0  0  0  0  0  0  0  0
   -2.4421    0.9891   -0.9442 H   0  0  0  0  0  0  0  0  0  0  0  0
   -3.6608   -1.0991   -0.6978 H   0  0  0  0  0  0  0  0  0  0  0  0
   -4.8751    1.1036    0.8390 H   0  0  0  0  0  0  0  0  0  0  0  0
   -4.8802    0.9895   -0.9373 H   0  0  0  0  0  0  0  0  0  0  0  0
   -6.1007   -1.1643   -0.7955 H   0  0  0  0  0  0  0  0  0  0  0  0
   -6.0956   -1.0502    0.9808 H   0  0  0  0  0  0  0  0  0  0  0  0
   -7.3194    0.9383   -0.8182 H   0  0  0  0  0  0  0  0  0  0  0  0
   -8.1488   -0.2189    0.0415 H   0  0  0  0  0  0  0  0  0  0  0  0
  1  2  1  0  0  0  0
  2  3  1  0  0  0  0
  3  4  1  0  0  0  0
  4  5  1  0  0  0  0
  5  6  1  0  0  0  0
  6  7  1  0  0  0  0
  7  8  1  0  0  0  0
  8  9  1  0  0  0  0
  9 10  1  0  0  0  0
 10 11  1  0  0  0  0
 11 12  1  0  0  0  0
 12 13  1  0  0  0  0
  1 14  1  0  0  0  0
  1 15  1  0  0  0  0
  2 16  1  0  0  0  0
  2 17  1  0  0  0  0
  3 18  1  0  0  0  0
  3 19  1  0  0  0  0
  4 20  1  0  0  0  0
  5 21  1  0  0  0  0
  5 22  1  0  0  0  0
  6 23  1  0  0  0  0
  6 24  1  0  0  0  0
  7 25  1  0  0  0  0
  8 26  1  0  0  0  0
  8 27  1  0  0  0  0
  9 28  1  0  0  0  0
  9 29  1  0  0  0  0
 10 30  1  0  0  0  0
 11 31  1  0  0  0  0
 11 32  1  0  0  0  0
 12 33  1  0  0  0  0
 12 34  1  0  0  0  0
 13 35  1  0  0  0  0
 13 36  1  0  0  0  0
M  END
$$$$
