C2Cl4
APtclcactv12101715353D 0   0.00000     0.00000
 
  6  5  0  0  0  0  0  0  0  0999 V2000
   -1.5258   -1.5034    0.0015 Cl  0  0  0  0  0  0  0  0  0  0  0  0
   -0.6578    0.0000    0.0023 C   0  0  0  0  0  0  0  0  0  0  0  0
    0.6578   -0.0000    0.0008 C   0  0  0  0  0  0  0  0  0  0  0  0
    1.5257   -1.5035   -0.0020 Cl  0  0  0  0  0  0  0  0  0  0  0  0
    1.5258    1.5034    0.0016 Cl  0  0  0  0  0  0  0  0  0  0  0  0
   -1.5257    1.5035   -0.0021 Cl  0  0  0  0  0  0  0  0  0  0  0  0
  1  2  1  0  0  0  0
  2  3  2  0  0  0  0
  3  4  1  0  0  0  0
  3  5  1  0  0  0  0
  2  6  1  0  0  0  0
M  END
$$$$
