C8H14O4
APtclcactv12151716343D 0   0.00000     0.00000
 
 26 25  0  0  0  0  0  0  0  0999 V2000
   -0.4569   -1.3918   -1.2492 C   0  0  0  0  0  0  0  0  0  0  0  0
   -0.5656   -0.5151   -0.0000 C   0  0  0  0  0  0  0  0  0  0  0  0
    0.5656    0.5151    0.0000 C   0  0  0  0  0  0  0  0  0  0  0  0
    1.8937   -0.1970    0.0000 C   0  0  0  0  0  0  0  0  0  0  0  0
    1.9317   -1.4046   -0.0000 O   0  0  0  0  0  0  0  0  0  0  0  0
    3.0345    0.5104    0.0000 O   0  0  0  0  0  0  0  0  0  0  0  0
    0.4569    1.3918   -1.2492 C   0  0  0  0  0  0  0  0  0  0  0  0
    0.4569    1.3918    1.2492 C   0  0  0  0  0  0  0  0  0  0  0  0
   -1.8937    0.1970    0.0000 C   0  0  0  0  0  0  0  0  0  0  0  0
   -1.9317    1.4046   -0.0000 O   0  0  0  0  0  0  0  0  0  0  0  0
   -3.0345   -0.5104    0.0000 O   0  0  0  0  0  0  0  0  0  0  0  0
   -0.4569   -1.3918    1.2492 C   0  0  0  0  0  0  0  0  0  0  0  0
    0.5037   -1.9069   -1.2492 H   0  0  0  0  0  0  0  0  0  0  0  0
   -1.2627   -2.1258   -1.2492 H   0  0  0  0  0  0  0  0  0  0  0  0
   -0.5343   -0.7673   -2.1392 H   0  0  0  0  0  0  0  0  0  0  0  0
    3.8616    0.0095   -0.0000 H   0  0  0  0  0  0  0  0  0  0  0  0
   -0.5037    1.9069   -1.2492 H   0  0  0  0  0  0  0  0  0  0  0  0
    1.2627    2.1258   -1.2492 H   0  0  0  0  0  0  0  0  0  0  0  0
    0.5343    0.7673   -2.1392 H   0  0  0  0  0  0  0  0  0  0  0  0
    0.5343    0.7673    2.1392 H   0  0  0  0  0  0  0  0  0  0  0  0
    1.2627    2.1258    1.2492 H   0  0  0  0  0  0  0  0  0  0  0  0
   -0.5037    1.9069    1.2492 H   0  0  0  0  0  0  0  0  0  0  0  0
   -3.8616   -0.0095    0.0000 H   0  0  0  0  0  0  0  0  0  0  0  0
    0.5037   -1.9069    1.2492 H   0  0  0  0  0  0  0  0  0  0  0  0
   -0.5343   -0.7673    2.1392 H   0  0  0  0  0  0  0  0  0  0  0  0
   -1.2627   -2.1258    1.2492 H   0  0  0  0  0  0  0  0  0  0  0  0
  1  2  1  0  0  0  0
  2  3  1  0  0  0  0
  3  4  1  0  0  0  0
  4  5  2  0  0  0  0
  4  6  1  0  0  0  0
  3  7  1  0  0  0  0
  3  8  1  0  0  0  0
  2  9  1  0  0  0  0
  9 10  2  0  0  0  0
  9 11  1  0  0  0  0
  2 12  1  0  0  0  0
  1 13  1  0  0  0  0
  1 14  1  0  0  0  0
  1 15  1  0  0  0  0
  6 16  1  0  0  0  0
  7 17  1  0  0  0  0
  7 18  1  0  0  0  0
  7 19  1  0  0  0  0
  8 20  1  0  0  0  0
  8 21  1  0  0  0  0
  8 22  1  0  0  0  0
 11 23  1  0  0  0  0
 12 24  1  0  0  0  0
 12 25  1  0  0  0  0
 12 26  1  0  0  0  0
M  END
$$$$
