C4H8O
APtclcactv12211716393D 0   0.00000     0.00000
 
 13 13  0  0  0  0  0  0  0  0999 V2000
   -1.2079    0.0309    0.0784 O   0  0  0  0  0  0  0  0  0  0  0  0
   -0.4227   -1.1671    0.0694 C   0  0  0  0  0  0  0  0  0  0  0  0
    1.0444   -0.7614   -0.1881 C   0  0  0  0  0  0  0  0  0  0  0  0
    1.0524    0.7327    0.2358 C   0  0  0  0  0  0  0  0  0  0  0  0
   -0.3720    1.1674   -0.1917 C   0  0  0  0  0  0  0  0  0  0  0  0
   -0.5037   -1.6695    1.0333 H   0  0  0  0  0  0  0  0  0  0  0  0
   -0.7679   -1.8296   -0.7244 H   0  0  0  0  0  0  0  0  0  0  0  0
    1.7231   -1.3448    0.4340 H   0  0  0  0  0  0  0  0  0  0  0  0
    1.2965   -0.8665   -1.2433 H   0  0  0  0  0  0  0  0  0  0  0  0
    1.1877    0.8348    1.3126 H   0  0  0  0  0  0  0  0  0  0  0  0
    1.8137    1.2914   -0.3086 H   0  0  0  0  0  0  0  0  0  0  0  0
   -0.3913    1.4071   -1.2549 H   0  0  0  0  0  0  0  0  0  0  0  0
   -0.6983    2.0252    0.3963 H   0  0  0  0  0  0  0  0  0  0  0  0
  1  2  1  0  0  0  0
  2  3  1  0  0  0  0
  3  4  1  0  0  0  0
  4  5  1  0  0  0  0
  1  5  1  0  0  0  0
  2  6  1  0  0  0  0
  2  7  1  0  0  0  0
  3  8  1  0  0  0  0
  3  9  1  0  0  0  0
  4 10  1  0  0  0  0
  4 11  1  0  0  0  0
  5 12  1  0  0  0  0
  5 13  1  0  0  0  0
M  END
$$$$
