C8H20Sn
APtclcactv12151716413D 0   0.00000     0.00000
 
 29 28  0  0  0  0  0  0  0  0999 V2000
    0.6285   -1.6391    1.2413 C   0  0  0  0  0  0  0  0  0  0  0  0
    1.0757   -2.8055    0.3580 C   0  0  0  0  0  0  0  0  0  0  0  0
    0.0000   -0.0000   -0.0000 Sn  0  0  0  0  0  0  0  0  0  0  0  0
   -0.6285    1.6391    1.2413 C   0  0  0  0  0  0  0  0  0  0  0  0
   -1.0757    2.8055    0.3580 C   0  0  0  0  0  0  0  0  0  0  0  0
    1.6391    0.6285   -1.2413 C   0  0  0  0  0  0  0  0  0  0  0  0
    2.8055    1.0757   -0.3580 C   0  0  0  0  0  0  0  0  0  0  0  0
   -1.6391   -0.6285   -1.2413 C   0  0  0  0  0  0  0  0  0  0  0  0
   -2.8055   -1.0757   -0.3580 C   0  0  0  0  0  0  0  0  0  0  0  0
   -0.2025   -1.9577    1.8706 H   0  0  0  0  0  0  0  0  0  0  0  0
    1.4595   -1.3205    1.8706 H   0  0  0  0  0  0  0  0  0  0  0  0
    1.3944   -3.6365    0.9873 H   0  0  0  0  0  0  0  0  0  0  0  0
    0.2447   -3.1242   -0.2714 H   0  0  0  0  0  0  0  0  0  0  0  0
    1.9067   -2.4869   -0.2714 H   0  0  0  0  0  0  0  0  0  0  0  0
   -1.4595    1.3205    1.8706 H   0  0  0  0  0  0  0  0  0  0  0  0
    0.2025    1.9577    1.8706 H   0  0  0  0  0  0  0  0  0  0  0  0
   -1.3944    3.6365    0.9873 H   0  0  0  0  0  0  0  0  0  0  0  0
   -0.2447    3.1242   -0.2714 H   0  0  0  0  0  0  0  0  0  0  0  0
   -1.9067    2.4869   -0.2714 H   0  0  0  0  0  0  0  0  0  0  0  0
    1.9577   -0.2025   -1.8706 H   0  0  0  0  0  0  0  0  0  0  0  0
    1.3205    1.4595   -1.8706 H   0  0  0  0  0  0  0  0  0  0  0  0
    3.1242    0.2447    0.2714 H   0  0  0  0  0  0  0  0  0  0  0  0
    3.6365    1.3944   -0.9873 H   0  0  0  0  0  0  0  0  0  0  0  0
    2.4869    1.9067    0.2714 H   0  0  0  0  0  0  0  0  0  0  0  0
   -1.9577    0.2025   -1.8706 H   0  0  0  0  0  0  0  0  0  0  0  0
   -1.3205   -1.4595   -1.8706 H   0  0  0  0  0  0  0  0  0  0  0  0
   -3.6365   -1.3944   -0.9873 H   0  0  0  0  0  0  0  0  0  0  0  0
   -2.4869   -1.9067    0.2714 H   0  0  0  0  0  0  0  0  0  0  0  0
   -3.1242   -0.2447    0.2714 H   0  0  0  0  0  0  0  0  0  0  0  0
  1  2  1  0  0  0  0
  1  3  1  0  0  0  0
  3  4  1  0  0  0  0
  4  5  1  0  0  0  0
  3  6  1  0  0  0  0
  6  7  1  0  0  0  0
  3  8  1  0  0  0  0
  8  9  1  0  0  0  0
  1 10  1  0  0  0  0
  1 11  1  0  0  0  0
  2 12  1  0  0  0  0
  2 13  1  0  0  0  0
  2 14  1  0  0  0  0
  4 15  1  0  0  0  0
  4 16  1  0  0  0  0
  5 17  1  0  0  0  0
  5 18  1  0  0  0  0
  5 19  1  0  0  0  0
  6 20  1  0  0  0  0
  6 21  1  0  0  0  0
  7 22  1  0  0  0  0
  7 23  1  0  0  0  0
  7 24  1  0  0  0  0
  8 25  1  0  0  0  0
  8 26  1  0  0  0  0
  9 27  1  0  0  0  0
  9 28  1  0  0  0  0
  9 29  1  0  0  0  0
M  END
$$$$
