C17H20N2O
APtclcactv12211717373D 0   0.00000     0.00000
 
 40 41  0  0  0  0  0  0  0  0999 V2000
   -3.6656   -0.2139    1.8268 C   0  0  0  0  0  0  0  0  0  0  0  0
   -3.3283   -0.0638    0.3657 C   0  0  0  0  0  0  0  0  0  0  0  0
   -1.9960    0.0458   -0.0372 C   0  0  0  0  0  0  0  0  0  0  0  0
   -1.6923    0.1847   -1.3934 C   0  0  0  0  0  0  0  0  0  0  0  0
   -2.7088    0.2127   -2.3250 C   0  0  0  0  0  0  0  0  0  0  0  0
   -4.0274    0.1040   -1.9186 C   0  0  0  0  0  0  0  0  0  0  0  0
   -4.3350   -0.0400   -0.5773 C   0  0  0  0  0  0  0  0  0  0  0  0
   -0.9118    0.0156    0.9670 C   0  0  0  0  0  0  0  0  0  0  0  0
    0.4954    0.0025    0.5315 C   0  0  0  0  0  0  0  0  0  0  0  0
    1.1427   -1.2149    0.2740 C   0  0  0  0  0  0  0  0  0  0  0  0
    2.4762   -1.2125   -0.1385 C   0  0  0  0  0  0  0  0  0  0  0  0
    3.1505   -0.0128   -0.2908 C   0  0  0  0  0  0  0  0  0  0  0  0
    2.5086    1.1896   -0.0357 C   0  0  0  0  0  0  0  0  0  0  0  0
    1.1925    1.2054    0.3667 C   0  0  0  0  0  0  0  0  0  0  0  0
    0.5048    2.5180    0.6412 C   0  0  0  0  0  0  0  0  0  0  0  0
    3.2554    2.4875   -0.2052 C   0  0  0  0  0  0  0  0  0  0  0  0
    4.5903   -0.0138   -0.7358 C   0  0  0  0  0  0  0  0  0  0  0  0
    3.1316   -2.4224   -0.3976 N   0  0  0  0  0  0  0  0  0  0  0  0
    0.4604   -2.4168    0.4292 N   0  0  0  0  0  0  0  0  0  0  0  0
   -1.1815    0.0014    2.1527 O   0  0  0  0  0  0  0  0  0  0  0  0
   -3.6802    0.7684    2.2991 H   0  0  0  0  0  0  0  0  0  0  0  0
   -4.6458   -0.6800    1.9274 H   0  0  0  0  0  0  0  0  0  0  0  0
   -2.9148   -0.8386    2.3107 H   0  0  0  0  0  0  0  0  0  0  0  0
   -0.6639    0.2704   -1.7117 H   0  0  0  0  0  0  0  0  0  0  0  0
   -2.4755    0.3200   -3.3740 H   0  0  0  0  0  0  0  0  0  0  0  0
   -4.8196    0.1268   -2.6523 H   0  0  0  0  0  0  0  0  0  0  0  0
   -5.3660   -0.1243   -0.2670 H   0  0  0  0  0  0  0  0  0  0  0  0
    0.1275    2.9329   -0.2935 H   0  0  0  0  0  0  0  0  0  0  0  0
   -0.3257    2.3563    1.3284 H   0  0  0  0  0  0  0  0  0  0  0  0
    1.2151    3.2141    1.0872 H   0  0  0  0  0  0  0  0  0  0  0  0
    3.1322    2.8467   -1.2270 H   0  0  0  0  0  0  0  0  0  0  0  0
    2.8599    3.2278    0.4903 H   0  0  0  0  0  0  0  0  0  0  0  0
    4.3141    2.3269   -0.0017 H   0  0  0  0  0  0  0  0  0  0  0  0
    4.6342    0.0318   -1.8240 H   0  0  0  0  0  0  0  0  0  0  0  0
    5.1013    0.8521   -0.3149 H   0  0  0  0  0  0  0  0  0  0  0  0
    5.0767   -0.9261   -0.3905 H   0  0  0  0  0  0  0  0  0  0  0  0
    2.6589   -3.2626   -0.2905 H   0  0  0  0  0  0  0  0  0  0  0  0
    4.0582   -2.4203   -0.6843 H   0  0  0  0  0  0  0  0  0  0  0  0
   -0.4358   -2.4213    0.8003 H   0  0  0  0  0  0  0  0  0  0  0  0
    0.8806   -3.2505    0.1663 H   0  0  0  0  0  0  0  0  0  0  0  0
  1  2  1  0  0  0  0
  2  3  2  0  0  0  0
  3  4  1  0  0  0  0
  4  5  2  0  0  0  0
  5  6  1  0  0  0  0
  6  7  2  0  0  0  0
  2  7  1  0  0  0  0
  3  8  1  0  0  0  0
  8  9  1  0  0  0  0
  9 10  2  0  0  0  0
 10 11  1  0  0  0  0
 11 12  2  0  0  0  0
 12 13  1  0  0  0  0
 13 14  2  0  0  0  0
  9 14  1  0  0  0  0
 14 15  1  0  0  0  0
 13 16  1  0  0  0  0
 12 17  1  0  0  0  0
 11 18  1  0  0  0  0
 10 19  1  0  0  0  0
  8 20  2  0  0  0  0
  1 21  1  0  0  0  0
  1 22  1  0  0  0  0
  1 23  1  0  0  0  0
  4 24  1  0  0  0  0
  5 25  1  0  0  0  0
  6 26  1  0  0  0  0
  7 27  1  0  0  0  0
 15 28  1  0  0  0  0
 15 29  1  0  0  0  0
 15 30  1  0  0  0  0
 16 31  1  0  0  0  0
 16 32  1  0  0  0  0
 16 33  1  0  0  0  0
 17 34  1  0  0  0  0
 17 35  1  0  0  0  0
 17 36  1  0  0  0  0
 18 37  1  0  0  0  0
 18 38  1  0  0  0  0
 19 39  1  0  0  0  0
 19 40  1  0  0  0  0
M  END
$$$$
