C14H19N3S
APtclcactv12211717033D 0   0.00000     0.00000
 
 37 38  0  0  0  0  0  0  0  0999 V2000
   -0.5859    2.2528    0.8607 C   0  0  0  0  0  0  0  0  0  0  0  0
   -0.6816    3.6126    0.6247 C   0  0  0  0  0  0  0  0  0  0  0  0
    0.9670    3.3580   -1.0866 C   0  0  0  0  0  0  0  0  0  0  0  0
   -1.8339   -2.2533    0.0006 C   0  0  0  0  0  0  0  0  0  0  0  0
   -2.8197   -0.2339    0.4493 C   0  0  0  0  0  0  0  0  0  0  0  0
    0.1120    4.1702   -0.3687 C   0  0  0  0  0  0  0  0  0  0  0  0
   -3.0026   -2.5099   -0.5890 C   0  0  0  0  0  0  0  0  0  0  0  0
   -0.4897   -0.5280    1.2842 C   0  0  0  0  0  0  0  0  0  0  0  0
    1.4077   -0.6588   -0.3955 C   0  0  0  0  0  0  0  0  0  0  0  0
    2.7089   -0.6841    0.4091 C   0  0  0  0  0  0  0  0  0  0  0  0
    5.0413   -1.3254    0.3033 C   0  0  0  0  0  0  0  0  0  0  0  0
    3.3241   -2.8859   -0.3885 C   0  0  0  0  0  0  0  0  0  0  0  0
    0.2972    1.4946    0.0991 C   0  0  0  0  0  0  0  0  0  0  0  0
   -1.7330   -0.9973    0.5735 C   0  0  0  0  0  0  0  0  0  0  0  0
    0.4032    0.1272    0.3252 N   0  0  0  0  0  0  0  0  0  0  0  0
    3.7162   -1.4722   -0.3135 N   0  0  0  0  0  0  0  0  0  0  0  0
    1.0376    2.0638   -0.8399 N   0  0  0  0  0  0  0  0  0  0  0  0
   -4.0607   -1.1136   -0.4336 S   0  0  0  0  0  0  0  0  0  0  0  0
   -0.7637    0.1791    2.0672 H   0  0  0  0  0  0  0  0  0  0  0  0
    0.0193   -1.3832    1.7289 H   0  0  0  0  0  0  0  0  0  0  0  0
    1.5919   -0.2069   -1.3701 H   0  0  0  0  0  0  0  0  0  0  0  0
    1.0440   -1.6774   -0.5302 H   0  0  0  0  0  0  0  0  0  0  0  0
   -1.1854    1.7870    1.6288 H   0  0  0  0  0  0  0  0  0  0  0  0
    3.0726    0.3345    0.5438 H   0  0  0  0  0  0  0  0  0  0  0  0
    2.5246   -1.1360    1.3838 H   0  0  0  0  0  0  0  0  0  0  0  0
   -1.3588    4.2265    1.2000 H   0  0  0  0  0  0  0  0  0  0  0  0
    1.5859    3.7875   -1.8605 H   0  0  0  0  0  0  0  0  0  0  0  0
   -1.0290   -2.9727    0.0324 H   0  0  0  0  0  0  0  0  0  0  0  0
   -2.9221    0.7707    0.8325 H   0  0  0  0  0  0  0  0  0  0  0  0
    0.0608    5.2285   -0.5779 H   0  0  0  0  0  0  0  0  0  0  0  0
   -3.2598   -3.4338   -1.0857 H   0  0  0  0  0  0  0  0  0  0  0  0
    5.0017   -1.6716    1.3361 H   0  0  0  0  0  0  0  0  0  0  0  0
    5.7680   -1.9191   -0.2513 H   0  0  0  0  0  0  0  0  0  0  0  0
    5.3374   -0.2766    0.2828 H   0  0  0  0  0  0  0  0  0  0  0  0
    2.3718   -2.9716   -0.9119 H   0  0  0  0  0  0  0  0  0  0  0  0
    4.0872   -3.4465   -0.9284 H   0  0  0  0  0  0  0  0  0  0  0  0
    3.2222   -3.2886    0.6193 H   0  0  0  0  0  0  0  0  0  0  0  0
 13 15  1  0  0  0  0
  8 15  1  0  0  0  0
  9 15  1  0  0  0  0
  1 13  2  0  0  0  0
 13 17  1  0  0  0  0
  8 14  1  0  0  0  0
  9 10  1  0  0  0  0
  1  2  1  0  0  0  0
  3 17  2  0  0  0  0
  4 14  1  0  0  0  0
  5 14  2  0  0  0  0
 10 16  1  0  0  0  0
  2  6  2  0  0  0  0
  4  7  2  0  0  0  0
  5 18  1  0  0  0  0
 11 16  1  0  0  0  0
 12 16  1  0  0  0  0
  3  6  1  0  0  0  0
  7 18  1  0  0  0  0
  8 19  1  0  0  0  0
  8 20  1  0  0  0  0
  9 21  1  0  0  0  0
  9 22  1  0  0  0  0
  1 23  1  0  0  0  0
 10 24  1  0  0  0  0
 10 25  1  0  0  0  0
  2 26  1  0  0  0  0
  3 27  1  0  0  0  0
  4 28  1  0  0  0  0
  5 29  1  0  0  0  0
  6 30  1  0  0  0  0
  7 31  1  0  0  0  0
 11 32  1  0  0  0  0
 11 33  1  0  0  0  0
 11 34  1  0  0  0  0
 12 35  1  0  0  0  0
 12 36  1  0  0  0  0
 12 37  1  0  0  0  0
M  END
$$$$
