C2H5NS
APtclcactv12101715343D 0   0.00000     0.00000
 
  9  8  0  0  0  0  0  0  0  0999 V2000
    1.2173    1.2073    0.0000 C   0  0  0  0  0  0  0  0  0  0  0  0
    1.9279   -1.3226   -0.0000 H   0  0  0  0  0  0  0  0  0  0  0  0
    0.4164   -2.0560   -0.0000 H   0  0  0  0  0  0  0  0  0  0  0  0
    0.3721   -0.0404    0.0000 C   0  0  0  0  0  0  0  0  0  0  0  0
    0.9604   -1.2529   -0.0000 N   0  0  0  0  0  0  0  0  0  0  0  0
   -1.2228    0.0744   -0.0000 S   0  0  0  0  0  0  0  0  0  0  0  0
    2.2719    0.9317    0.0000 H   0  0  0  0  0  0  0  0  0  0  0  0
    0.9957    1.7963   -0.8900 H   0  0  0  0  0  0  0  0  0  0  0  0
    0.9957    1.7963    0.8900 H   0  0  0  0  0  0  0  0  0  0  0  0
  1  4  1  0  0  0  0
  4  5  1  0  0  0  0
  4  6  2  0  0  0  0
  1  7  1  0  0  0  0
  1  8  1  0  0  0  0
  1  9  1  0  0  0  0
  2  5  1  0  0  0  0
  3  5  1  0  0  0  0
M  END
$$$$
