C6H7F3N4OS
APtclcactv12211716543D 0   0.00000     0.00000
 
 22 22  0  0  0  0  0  0  0  0999 V2000
   -2.3386    2.0734    0.0033 C   0  0  0  0  0  0  0  0  0  0  0  0
   -5.3918   -0.8402    0.0025 C   0  0  0  0  0  0  0  0  0  0  0  0
   -4.5143    1.0932    0.0051 H   0  0  0  0  0  0  0  0  0  0  0  0
   -0.7022    0.2187   -0.0036 C   0  0  0  0  0  0  0  0  0  0  0  0
    1.7090   -0.1867   -0.0006 C   0  0  0  0  0  0  0  0  0  0  0  0
   -2.7655   -1.4528   -0.0035 O   0  0  0  0  0  0  0  0  0  0  0  0
   -3.0241   -0.2648   -0.0005 C   0  0  0  0  0  0  0  0  0  0  0  0
   -4.3080    0.1454    0.0027 N   0  0  0  0  0  0  0  0  0  0  0  0
    3.6787   -1.5064   -0.1113 F   0  0  0  0  0  0  0  0  0  0  0  0
    3.6858    0.5628   -1.0796 F   0  0  0  0  0  0  0  0  0  0  0  0
    3.6824    0.3667    1.1966 F   0  0  0  0  0  0  0  0  0  0  0  0
   -0.3022   -1.0171   -0.0013 N   0  0  0  0  0  0  0  0  0  0  0  0
    0.9422   -1.2303    0.0002 N   0  0  0  0  0  0  0  0  0  0  0  0
    3.2160   -0.1910    0.0013 C   0  0  0  0  0  0  0  0  0  0  0  0
   -2.0270    0.6419   -0.0003 N   0  0  0  0  0  0  0  0  0  0  0  0
    0.6726    1.2407   -0.0038 S   0  0  0  0  0  0  0  0  0  0  0  0
   -2.4177    2.4307   -1.0234 H   0  0  0  0  0  0  0  0  0  0  0  0
   -3.2846    2.2380    0.5192 H   0  0  0  0  0  0  0  0  0  0  0  0
   -1.5454    2.6166    0.5169 H   0  0  0  0  0  0  0  0  0  0  0  0
   -5.3166   -1.4629   -0.8890 H   0  0  0  0  0  0  0  0  0  0  0  0
   -5.3134   -1.4668    0.8910 H   0  0  0  0  0  0  0  0  0  0  0  0
   -6.3520   -0.3244    0.0053 H   0  0  0  0  0  0  0  0  0  0  0  0
  4 16  1  0  0  0  0
  4 15  1  0  0  0  0
  4 12  2  0  0  0  0
  5 16  1  0  0  0  0
  7 15  1  0  0  0  0
  1 15  1  0  0  0  0
 12 13  1  0  0  0  0
  5 14  1  0  0  0  0
  7  8  1  0  0  0  0
  6  7  2  0  0  0  0
  9 14  1  0  0  0  0
 10 14  1  0  0  0  0
 11 14  1  0  0  0  0
  2  8  1  0  0  0  0
  5 13  2  0  0  0  0
  1 17  1  0  0  0  0
  1 18  1  0  0  0  0
  1 19  1  0  0  0  0
  3  8  1  0  0  0  0
  2 20  1  0  0  0  0
  2 21  1  0  0  0  0
  2 22  1  0  0  0  0
M  END
$$$$
