C2N6O3S
APtclcactv12101715353D 0   0.00000     0.00000
 
 12 11  0  0  0  0  0  0  0  0999 V2000
   -1.5987    0.2226    0.0043 C   0  0  0  0  0  0  0  0  0  0  0  0
   -1.8717   -1.4675    0.0019 S   0  0  0  0  0  0  0  0  0  0  0  0
   -0.3357    0.7030    0.0038 O   0  0  0  0  0  0  0  0  0  0  0  0
    0.6999   -0.3390    0.0010 O   0  0  0  0  0  0  0  0  0  0  0  0
    1.9625    0.1412    0.0004 C   0  0  0  0  0  0  0  0  0  0  0  0
    2.1574    1.3475    0.0021 O   0  0  0  0  0  0  0  0  0  0  0  0
    2.9807   -0.6885   -0.0021 N   0  0  0  0  0  0  0  0  0  0  0  0
    4.0313   -0.2889   -0.0025 N   0  3  0  0  0  0  0  0  0  0  0  0
    5.0819    0.1106   -0.0030 N   0  5  0  0  0  0  0  0  0  0  0  0
   -2.6169    1.0524    0.0013 N   0  0  0  0  0  0  0  0  0  0  0  0
   -3.6675    0.6528   -0.0029 N   0  3  0  0  0  0  0  0  0  0  0  0
   -4.7181    0.2532   -0.0071 N   0  5  0  0  0  0  0  0  0  0  0  0
  1  2  2  0  0  0  0
  1  3  1  0  0  0  0
  3  4  1  0  0  0  0
  4  5  1  0  0  0  0
  5  6  2  0  0  0  0
  5  7  1  0  0  0  0
  7  8  2  0  0  0  0
  8  9  2  0  0  0  0
  1 10  1  0  0  0  0
 10 11  2  0  0  0  0
 11 12  2  0  0  0  0
M  CHG  4   8   1   9  -1  11   1  12  -1
M  END
$$$$
