C6H15O2PS3
APtclcactv12211717013D 0   0.00000     0.00000
 
 27 26  0  0  0  0  0  0  0  0999 V2000
    0.7452   -1.2371    0.8909 C   0  0  0  0  0  0  0  0  0  0  0  0
    1.6995   -0.0718    0.6219 C   0  0  0  0  0  0  0  0  0  0  0  0
    4.2583    0.7906   -0.2557 C   0  0  0  0  0  0  0  0  0  0  0  0
   -0.4659    2.4937    0.0842 C   0  0  0  0  0  0  0  0  0  0  0  0
   -2.7007   -2.0682   -1.3347 C   0  0  0  0  0  0  0  0  0  0  0  0
    5.6420    0.4133   -0.7886 C   0  0  0  0  0  0  0  0  0  0  0  0
   -0.9178    1.4406   -0.7695 O   0  0  0  0  0  0  0  0  0  0  0  0
   -1.7928   -0.9653   -1.3683 O   0  0  0  0  0  0  0  0  0  0  0  0
   -1.7563    0.1754   -0.2326 P   0  0  0  0  0  0  0  0  0  0  0  0
   -0.8330   -0.5949    1.5134 S   0  0  0  0  0  0  0  0  0  0  0  0
    3.2777   -0.7140   -0.0005 S   0  0  0  0  0  0  0  0  0  0  0  0
   -3.4964    0.7084    0.1685 S   0  0  0  0  0  0  0  0  0  0  0  0
    0.5740   -1.7875   -0.0343 H   0  0  0  0  0  0  0  0  0  0  0  0
    1.1849   -1.9028    1.6336 H   0  0  0  0  0  0  0  0  0  0  0  0
   -1.3144    2.9119    0.6257 H   0  0  0  0  0  0  0  0  0  0  0  0
    0.2600    2.0991    0.7951 H   0  0  0  0  0  0  0  0  0  0  0  0
    0.0014    3.2736   -0.5171 H   0  0  0  0  0  0  0  0  0  0  0  0
   -2.5353   -2.7017   -2.2061 H   0  0  0  0  0  0  0  0  0  0  0  0
   -2.5343   -2.6483   -0.4270 H   0  0  0  0  0  0  0  0  0  0  0  0
   -3.7251   -1.6960   -1.3453 H   0  0  0  0  0  0  0  0  0  0  0  0
    1.2598    0.5939   -0.1208 H   0  0  0  0  0  0  0  0  0  0  0  0
    1.8707    0.4785    1.5471 H   0  0  0  0  0  0  0  0  0  0  0  0
    4.3655    1.3194    0.6914 H   0  0  0  0  0  0  0  0  0  0  0  0
    3.7546    1.4347   -0.9764 H   0  0  0  0  0  0  0  0  0  0  0  0
    6.1457   -0.2308   -0.0678 H   0  0  0  0  0  0  0  0  0  0  0  0
    5.5348   -0.1154   -1.7357 H   0  0  0  0  0  0  0  0  0  0  0  0
    6.2313    1.3174   -0.9419 H   0  0  0  0  0  0  0  0  0  0  0  0
  9 10  1  0  0  0  0
  1 10  1  0  0  0  0
  7  9  1  0  0  0  0
  8  9  1  0  0  0  0
  9 12  2  0  0  0  0
  4  7  1  0  0  0  0
  5  8  1  0  0  0  0
  1  2  1  0  0  0  0
  2 11  1  0  0  0  0
  3 11  1  0  0  0  0
  3  6  1  0  0  0  0
  1 13  1  0  0  0  0
  1 14  1  0  0  0  0
  4 15  1  0  0  0  0
  4 16  1  0  0  0  0
  4 17  1  0  0  0  0
  5 18  1  0  0  0  0
  5 19  1  0  0  0  0
  5 20  1  0  0  0  0
  2 21  1  0  0  0  0
  2 22  1  0  0  0  0
  3 23  1  0  0  0  0
  3 24  1  0  0  0  0
  6 25  1  0  0  0  0
  6 26  1  0  0  0  0
  6 27  1  0  0  0  0
M  END
$$$$
