C9H18N2O2S
APtclcactv12151716513D 0   0.00000     0.00000
 
 32 31  0  0  0  0  0  0  0  0999 V2000
    1.2582   -1.3857   -0.0912 C   0  0  0  0  0  0  0  0  0  0  0  0
    2.3040    2.3704    0.0606 C   0  0  0  0  0  0  0  0  0  0  0  0
    3.4128    0.5304   -1.2151 C   0  0  0  0  0  0  0  0  0  0  0  0
    3.3372    0.4506    1.2810 C   0  0  0  0  0  0  0  0  0  0  0  0
   -4.4479    1.1102    0.0313 C   0  0  0  0  0  0  0  0  0  0  0  0
   -0.2551   -3.7875   -0.0362 C   0  0  0  0  0  0  0  0  0  0  0  0
   -3.2807   -0.6617    0.1095 H   0  0  0  0  0  0  0  0  0  0  0  0
   -1.9495    2.1178   -0.0868 O   0  0  0  0  0  0  0  0  0  0  0  0
    1.2665    0.1205   -0.0428 C   0  0  0  0  0  0  0  0  0  0  0  0
   -2.0202    0.9069   -0.0131 C   0  0  0  0  0  0  0  0  0  0  0  0
   -0.8957    0.1668    0.0047 O   0  0  0  0  0  0  0  0  0  0  0  0
   -3.2243    0.3048    0.0507 N   0  0  0  0  0  0  0  0  0  0  0  0
    0.1624    0.7671   -0.0556 N   0  0  0  0  0  0  0  0  0  0  0  0
    2.5751    0.8651    0.0207 C   0  0  0  0  0  0  0  0  0  0  0  0
   -0.4488   -1.9855    0.0397 S   0  0  0  0  0  0  0  0  0  0  0  0
    1.6898   -1.7213   -1.0342 H   0  0  0  0  0  0  0  0  0  0  0  0
    1.8462   -1.7791    0.7380 H   0  0  0  0  0  0  0  0  0  0  0  0
    1.7072    2.6088    0.9410 H   0  0  0  0  0  0  0  0  0  0  0  0
    3.2505    2.9090    0.1066 H   0  0  0  0  0  0  0  0  0  0  0  0
    1.7611    2.6657   -0.8372 H   0  0  0  0  0  0  0  0  0  0  0  0
    2.8700    0.8258   -2.1129 H   0  0  0  0  0  0  0  0  0  0  0  0
    4.3594    1.0690   -1.1691 H   0  0  0  0  0  0  0  0  0  0  0  0
    3.6060   -0.5419   -1.2435 H   0  0  0  0  0  0  0  0  0  0  0  0
    3.5303   -0.6218    1.2525 H   0  0  0  0  0  0  0  0  0  0  0  0
    4.2837    0.9892    1.3269 H   0  0  0  0  0  0  0  0  0  0  0  0
    2.7403    0.6890    2.1614 H   0  0  0  0  0  0  0  0  0  0  0  0
   -4.4485    1.7909    0.8826 H   0  0  0  0  0  0  0  0  0  0  0  0
   -4.4898    1.6852   -0.8938 H   0  0  0  0  0  0  0  0  0  0  0  0
   -5.3160    0.4536    0.0905 H   0  0  0  0  0  0  0  0  0  0  0  0
   -1.2341   -4.2615    0.0347 H   0  0  0  0  0  0  0  0  0  0  0  0
    0.2145   -4.0630   -0.9805 H   0  0  0  0  0  0  0  0  0  0  0  0
    0.3708   -4.1209    0.7916 H   0  0  0  0  0  0  0  0  0  0  0  0
  1 15  1  0  0  0  0
  6 15  1  0  0  0  0
 11 13  1  0  0  0  0
 10 11  1  0  0  0  0
  8 10  2  0  0  0  0
  9 13  2  0  0  0  0
 10 12  1  0  0  0  0
  5 12  1  0  0  0  0
  9 14  1  0  0  0  0
  2 14  1  0  0  0  0
  3 14  1  0  0  0  0
  4 14  1  0  0  0  0
  1  9  1  0  0  0  0
  7 12  1  0  0  0  0
  1 16  1  0  0  0  0
  1 17  1  0  0  0  0
  2 18  1  0  0  0  0
  2 19  1  0  0  0  0
  2 20  1  0  0  0  0
  3 21  1  0  0  0  0
  3 22  1  0  0  0  0
  3 23  1  0  0  0  0
  4 24  1  0  0  0  0
  4 25  1  0  0  0  0
  4 26  1  0  0  0  0
  5 27  1  0  0  0  0
  5 28  1  0  0  0  0
  5 29  1  0  0  0  0
  6 30  1  0  0  0  0
  6 31  1  0  0  0  0
  6 32  1  0  0  0  0
M  END
$$$$
