C8H13N2O3PS
APtclcactv12151716343D 0   0.00000     0.00000
 
 28 28  0  0  0  0  0  0  0  0999 V2000
    2.3466    1.3750   -0.1384 C   0  0  0  0  0  0  0  0  0  0  0  0
    3.5152   -0.9443    0.5152 C   0  0  0  0  0  0  0  0  0  0  0  0
    4.1500   -0.0253   -0.2992 C   0  0  0  0  0  0  0  0  0  0  0  0
   -1.6162   -2.1771   -0.5931 C   0  0  0  0  0  0  0  0  0  0  0  0
   -3.2824    0.9163   -0.1463 C   0  0  0  0  0  0  0  0  0  0  0  0
   -1.5451   -3.6497   -0.1844 C   0  0  0  0  0  0  0  0  0  0  0  0
   -4.4044    1.6586    0.5824 C   0  0  0  0  0  0  0  0  0  0  0  0
    1.7055    0.4523    0.6812 C   0  0  0  0  0  0  0  0  0  0  0  0
    0.4661    0.7183    1.1649 O   0  0  0  0  0  0  0  0  0  0  0  0
   -0.8720   -1.3880    0.3372 O   0  0  0  0  0  0  0  0  0  0  0  0
   -2.1088    0.9082    0.6689 O   0  0  0  0  0  0  0  0  0  0  0  0
    2.3077   -0.6877    0.9884 N   0  0  0  0  0  0  0  0  0  0  0  0
    3.5522    1.1129   -0.6077 N   0  0  0  0  0  0  0  0  0  0  0  0
   -0.7305    0.2111    0.2146 P   0  0  0  0  0  0  0  0  0  0  0  0
   -0.3563    0.6679   -1.5529 S   0  0  0  0  0  0  0  0  0  0  0  0
   -1.1946   -2.0562   -1.5910 H   0  0  0  0  0  0  0  0  0  0  0  0
   -2.6562   -1.8506   -0.5961 H   0  0  0  0  0  0  0  0  0  0  0  0
   -3.5942   -0.1092   -0.3446 H   0  0  0  0  0  0  0  0  0  0  0  0
   -3.0666    1.4192   -1.0890 H   0  0  0  0  0  0  0  0  0  0  0  0
    1.8567    2.3029   -0.3943 H   0  0  0  0  0  0  0  0  0  0  0  0
   -1.9667   -3.7706    0.8135 H   0  0  0  0  0  0  0  0  0  0  0  0
   -2.1128   -4.2516   -0.8940 H   0  0  0  0  0  0  0  0  0  0  0  0
   -0.5051   -3.9762   -0.1814 H   0  0  0  0  0  0  0  0  0  0  0  0
   -4.0927    2.6841    0.7807 H   0  0  0  0  0  0  0  0  0  0  0  0
   -5.2997    1.6648   -0.0393 H   0  0  0  0  0  0  0  0  0  0  0  0
   -4.6203    1.1558    1.5251 H   0  0  0  0  0  0  0  0  0  0  0  0
    4.0063   -1.8731    0.7653 H   0  0  0  0  0  0  0  0  0  0  0  0
    5.1366   -0.2373   -0.6841 H   0  0  0  0  0  0  0  0  0  0  0  0
  9 14  1  0  0  0  0
 10 14  1  0  0  0  0
 11 14  1  0  0  0  0
 14 15  2  0  0  0  0
  8  9  1  0  0  0  0
  4 10  1  0  0  0  0
  5 11  1  0  0  0  0
  1  8  2  0  0  0  0
  8 12  1  0  0  0  0
  4  6  1  0  0  0  0
  5  7  1  0  0  0  0
  1 13  1  0  0  0  0
  2 12  2  0  0  0  0
  3 13  2  0  0  0  0
  2  3  1  0  0  0  0
  4 16  1  0  0  0  0
  4 17  1  0  0  0  0
  5 18  1  0  0  0  0
  5 19  1  0  0  0  0
  1 20  1  0  0  0  0
  6 21  1  0  0  0  0
  6 22  1  0  0  0  0
  6 23  1  0  0  0  0
  7 24  1  0  0  0  0
  7 25  1  0  0  0  0
  7 26  1  0  0  0  0
  2 27  1  0  0  0  0
  3 28  1  0  0  0  0
M  END
$$$$
