C12H16ClNOS
APtclcactv12111705003D 0   0.00000     0.00000
 
 32 32  0  0  0  0  0  0  0  0999 V2000
    2.1302    1.0658   -0.8060 C   0  0  0  0  0  0  0  0  0  0  0  0
    2.1602   -0.1038    1.2835 C   0  0  0  0  0  0  0  0  0  0  0  0
    3.4533    0.7258   -1.0160 C   0  0  0  0  0  0  0  0  0  0  0  0
    3.4832   -0.4447    1.0744 C   0  0  0  0  0  0  0  0  0  0  0  0
    0.0410    1.0218    0.5716 C   0  0  0  0  0  0  0  0  0  0  0  0
   -3.6344   -1.5226   -0.8008 C   0  0  0  0  0  0  0  0  0  0  0  0
   -5.0438    0.3098    0.2455 C   0  0  0  0  0  0  0  0  0  0  0  0
   -3.5832   -2.6712    0.2087 C   0  0  0  0  0  0  0  0  0  0  0  0
   -5.5191    1.2086   -0.8978 C   0  0  0  0  0  0  0  0  0  0  0  0
    1.4837    0.6509    0.3433 C   0  0  0  0  0  0  0  0  0  0  0  0
    4.1308   -0.0298   -0.0757 C   0  0  0  0  0  0  0  0  0  0  0  0
   -2.6888    1.4707    0.8620 O   0  0  0  0  0  0  0  0  0  0  0  0
   -2.6094    0.4123    0.2681 C   0  0  0  0  0  0  0  0  0  0  0  0
    5.7925   -0.4576   -0.3390 Cl  0  0  0  0  0  0  0  0  0  0  0  0
   -1.0294   -0.2582   -0.1299 S   0  0  0  0  0  0  0  0  0  0  0  0
   -3.7301   -0.2477   -0.0855 N   0  0  0  0  0  0  0  0  0  0  0  0
   -0.1474    1.1065    1.6419 H   0  0  0  0  0  0  0  0  0  0  0  0
   -0.1695    1.9762    0.0890 H   0  0  0  0  0  0  0  0  0  0  0  0
    1.6026    1.6594   -1.5379 H   0  0  0  0  0  0  0  0  0  0  0  0
    1.6545   -0.4277    2.1812 H   0  0  0  0  0  0  0  0  0  0  0  0
    3.9582    1.0497   -1.9141 H   0  0  0  0  0  0  0  0  0  0  0  0
    4.0117   -1.0340    1.8091 H   0  0  0  0  0  0  0  0  0  0  0  0
   -2.7291   -1.5317   -1.4077 H   0  0  0  0  0  0  0  0  0  0  0  0
   -4.5051   -1.6439   -1.4452 H   0  0  0  0  0  0  0  0  0  0  0  0
   -4.9695    0.8958    1.1615 H   0  0  0  0  0  0  0  0  0  0  0  0
   -5.7569   -0.5018    0.3901 H   0  0  0  0  0  0  0  0  0  0  0  0
   -2.7125   -2.5499    0.8531 H   0  0  0  0  0  0  0  0  0  0  0  0
   -4.4885   -2.6621    0.8157 H   0  0  0  0  0  0  0  0  0  0  0  0
   -3.5120   -3.6198   -0.3235 H   0  0  0  0  0  0  0  0  0  0  0  0
   -4.8060    2.0202   -1.0425 H   0  0  0  0  0  0  0  0  0  0  0  0
   -5.5934    0.6226   -1.8139 H   0  0  0  0  0  0  0  0  0  0  0  0
   -6.4966    1.6234   -0.6516 H   0  0  0  0  0  0  0  0  0  0  0  0
  5 15  1  0  0  0  0
 13 15  1  0  0  0  0
  5 10  1  0  0  0  0
  1 10  2  0  0  0  0
  2 10  1  0  0  0  0
 13 16  1  0  0  0  0
 12 13  2  0  0  0  0
  1  3  1  0  0  0  0
  2  4  2  0  0  0  0
  6 16  1  0  0  0  0
  7 16  1  0  0  0  0
  3 11  2  0  0  0  0
  4 11  1  0  0  0  0
  6  8  1  0  0  0  0
  7  9  1  0  0  0  0
 11 14  1  0  0  0  0
  5 17  1  0  0  0  0
  5 18  1  0  0  0  0
  1 19  1  0  0  0  0
  2 20  1  0  0  0  0
  3 21  1  0  0  0  0
  4 22  1  0  0  0  0
  6 23  1  0  0  0  0
  6 24  1  0  0  0  0
  7 25  1  0  0  0  0
  7 26  1  0  0  0  0
  8 27  1  0  0  0  0
  8 28  1  0  0  0  0
  8 29  1  0  0  0  0
  9 30  1  0  0  0  0
  9 31  1  0  0  0  0
  9 32  1  0  0  0  0
M  END
$$$$
