C10H13Cl2FN2O2S2
APtclcactv12211717243D 0   0.00000     0.00000
 
 32 32  0  0  0  0  0  0  0  0999 V2000
    1.8221    0.1874    1.0426 C   0  0  0  0  0  0  0  0  0  0  0  0
    1.9885    0.4087   -1.3456 C   0  0  0  0  0  0  0  0  0  0  0  0
    3.1221    0.6354    1.1711 C   0  0  0  0  0  0  0  0  0  0  0  0
    3.2879    0.8565   -1.2099 C   0  0  0  0  0  0  0  0  0  0  0  0
    1.2014   -3.6549   -0.0731 C   0  0  0  0  0  0  0  0  0  0  0  0
   -0.9955   -3.6288   -1.3426 C   0  0  0  0  0  0  0  0  0  0  0  0
    5.2727    1.4579    0.1906 C   0  0  0  0  0  0  0  0  0  0  0  0
    1.2502    0.0724   -0.2180 C   0  0  0  0  0  0  0  0  0  0  0  0
    3.8544    0.9694    0.0465 C   0  0  0  0  0  0  0  0  0  0  0  0
   -1.9965   -1.6793    0.4676 O   0  0  0  0  0  0  0  0  0  0  0  0
    0.1675   -1.7050    1.7181 O   0  0  0  0  0  0  0  0  0  0  0  0
   -0.5864    2.7413    0.3558 Cl  0  0  0  0  0  0  0  0  0  0  0  0
   -2.7116    0.8346    1.0749 Cl  0  0  0  0  0  0  0  0  0  0  0  0
   -2.7904    2.4025   -1.0287 F   0  0  0  0  0  0  0  0  0  0  0  0
   -1.8675    1.6512   -0.2932 C   0  0  0  0  0  0  0  0  0  0  0  0
   -0.1053   -3.0466   -0.3352 N   0  0  0  0  0  0  0  0  0  0  0  0
   -0.0642   -0.3808   -0.3516 N   0  0  0  0  0  0  0  0  0  0  0  0
   -0.5762   -1.7009    0.5073 S   0  0  0  0  0  0  0  0  0  0  0  0
   -1.1106    0.4019   -1.3688 S   0  0  0  0  0  0  0  0  0  0  0  0
    1.9487   -3.2069   -0.7281 H   0  0  0  0  0  0  0  0  0  0  0  0
    1.4800   -3.4834    0.9666 H   0  0  0  0  0  0  0  0  0  0  0  0
    1.1478   -4.7269   -0.2629 H   0  0  0  0  0  0  0  0  0  0  0  0
   -0.5183   -4.5017   -1.7882 H   0  0  0  0  0  0  0  0  0  0  0  0
   -1.9317   -3.9276   -0.8711 H   0  0  0  0  0  0  0  0  0  0  0  0
   -1.1987   -2.8903   -2.1182 H   0  0  0  0  0  0  0  0  0  0  0  0
    5.9546    0.6081    0.1594 H   0  0  0  0  0  0  0  0  0  0  0  0
    5.5062    2.1414   -0.6257 H   0  0  0  0  0  0  0  0  0  0  0  0
    5.3830    1.9775    1.1424 H   0  0  0  0  0  0  0  0  0  0  0  0
    1.2523   -0.0775    1.9210 H   0  0  0  0  0  0  0  0  0  0  0  0
    1.5467    0.3207   -2.3271 H   0  0  0  0  0  0  0  0  0  0  0  0
    3.5673    0.7254    2.1510 H   0  0  0  0  0  0  0  0  0  0  0  0
    3.8625    1.1181   -2.0861 H   0  0  0  0  0  0  0  0  0  0  0  0
 14 15  1  0  0  0  0
 12 15  1  0  0  0  0
 13 15  1  0  0  0  0
 15 19  1  0  0  0  0
 17 19  1  0  0  0  0
  5 16  1  0  0  0  0
  6 16  1  0  0  0  0
 16 18  1  0  0  0  0
 10 18  2  0  0  0  0
 11 18  2  0  0  0  0
 17 18  1  0  0  0  0
  8 17  1  0  0  0  0
  1  8  2  0  0  0  0
  2  8  1  0  0  0  0
  7  9  1  0  0  0  0
  3  9  2  0  0  0  0
  4  9  1  0  0  0  0
  1  3  1  0  0  0  0
  2  4  2  0  0  0  0
  5 20  1  0  0  0  0
  5 21  1  0  0  0  0
  5 22  1  0  0  0  0
  6 23  1  0  0  0  0
  6 24  1  0  0  0  0
  6 25  1  0  0  0  0
  7 26  1  0  0  0  0
  7 27  1  0  0  0  0
  7 28  1  0  0  0  0
  1 29  1  0  0  0  0
  2 30  1  0  0  0  0
  3 31  1  0  0  0  0
  4 32  1  0  0  0  0
M  END
$$$$
