C7H7Cl3NO4P
APtclcactv12151716173D 0   0.00000     0.00000
 
 23 23  0  0  0  0  0  0  0  0999 V2000
    1.8651    1.5424   -0.1816 C   0  0  0  0  0  0  0  0  0  0  0  0
   -4.4196   -0.7860    1.3551 C   0  0  0  0  0  0  0  0  0  0  0  0
   -2.6663   -2.3870   -1.6414 C   0  0  0  0  0  0  0  0  0  0  0  0
   -0.0519    0.3546    0.6174 C   0  0  0  0  0  0  0  0  0  0  0  0
    0.5255    1.5371    0.1719 C   0  0  0  0  0  0  0  0  0  0  0  0
    1.9419   -0.7819    0.3754 C   0  0  0  0  0  0  0  0  0  0  0  0
    2.5821    0.3585   -0.0761 C   0  0  0  0  0  0  0  0  0  0  0  0
   -2.1376    0.6848   -1.4105 O   0  0  0  0  0  0  0  0  0  0  0  0
   -1.3633    0.3371    0.9666 O   0  0  0  0  0  0  0  0  0  0  0  0
   -3.8758   -0.0190    0.2790 O   0  0  0  0  0  0  0  0  0  0  0  0
   -2.0319   -1.6916   -0.5663 O   0  0  0  0  0  0  0  0  0  0  0  0
   -0.4191    2.9894    0.0603 Cl  0  0  0  0  0  0  0  0  0  0  0  0
    2.8302   -2.2674    0.5100 Cl  0  0  0  0  0  0  0  0  0  0  0  0
    4.2632    0.3092   -0.5065 Cl  0  0  0  0  0  0  0  0  0  0  0  0
   -2.3475   -0.1538   -0.2092 P   0  0  0  0  0  0  0  0  0  0  0  0
    0.6635   -0.7545    0.7042 N   0  0  0  0  0  0  0  0  0  0  0  0
   -5.4395   -0.4580    1.5559 H   0  0  0  0  0  0  0  0  0  0  0  0
   -4.4243   -1.8414    1.0829 H   0  0  0  0  0  0  0  0  0  0  0  0
   -3.8098   -0.6435    2.2473 H   0  0  0  0  0  0  0  0  0  0  0  0
   -3.7440   -2.4021   -1.4786 H   0  0  0  0  0  0  0  0  0  0  0  0
   -2.4479   -1.8800   -2.5812 H   0  0  0  0  0  0  0  0  0  0  0  0
   -2.2911   -3.4095   -1.6844 H   0  0  0  0  0  0  0  0  0  0  0  0
    2.3394    2.4458   -0.5354 H   0  0  0  0  0  0  0  0  0  0  0  0
  9 15  1  0  0  0  0
 10 15  1  0  0  0  0
 11 15  1  0  0  0  0
  8 15  2  0  0  0  0
  4  9  1  0  0  0  0
  2 10  1  0  0  0  0
  3 11  1  0  0  0  0
  4  5  2  0  0  0  0
  4 16  1  0  0  0  0
  1  5  1  0  0  0  0
  5 12  1  0  0  0  0
  6 16  2  0  0  0  0
  1  7  2  0  0  0  0
  6 13  1  0  0  0  0
  7 14  1  0  0  0  0
  6  7  1  0  0  0  0
  2 17  1  0  0  0  0
  2 18  1  0  0  0  0
  2 19  1  0  0  0  0
  3 20  1  0  0  0  0
  3 21  1  0  0  0  0
  3 22  1  0  0  0  0
  1 23  1  0  0  0  0
M  END
$$$$
