C13H18N2O3S
APtclcactv12091702533D 0   0.00000     0.00000
 
 37 38  0  0  0  0  0  0  0  0999 V2000
   -0.0641   -1.1315   -0.8752 S   0  0  0  0  0  0  0  0  0  0  0  0
   -0.1784   -2.4666   -0.4024 O   0  0  0  0  0  0  0  0  0  0  0  0
    0.1749   -0.8073   -2.2379 O   0  0  0  0  0  0  0  0  0  0  0  0
   -1.5585   -0.3143   -0.4240 C   0  0  0  0  0  0  0  0  0  0  0  0
   -1.9755    0.8011   -1.1262 C   0  0  0  0  0  0  0  0  0  0  0  0
   -3.1479    1.4422   -0.7722 C   0  0  0  0  0  0  0  0  0  0  0  0
   -3.9035    0.9678    0.2836 C   0  0  0  0  0  0  0  0  0  0  0  0
   -5.1814    1.6671    0.6698 C   0  0  0  0  0  0  0  0  0  0  0  0
   -3.4872   -0.1483    0.9849 C   0  0  0  0  0  0  0  0  0  0  0  0
   -2.3168   -0.7918    0.6285 C   0  0  0  0  0  0  0  0  0  0  0  0
    1.1593   -0.4309   -0.0063 N   0  0  0  0  0  0  0  0  0  0  0  0
    1.3040   -0.7147    1.3032 C   0  0  0  0  0  0  0  0  0  0  0  0
    2.1523   -0.1417    1.9594 O   0  0  0  0  0  0  0  0  0  0  0  0
    0.5085   -1.6338    1.8855 N   0  0  0  0  0  0  0  0  0  0  0  0
    2.0843    0.4975   -0.6612 C   0  0  0  0  0  0  0  0  0  0  0  0
    2.0162    1.8764    0.0182 C   0  0  0  0  0  0  0  0  0  0  0  0
    3.4281    2.1673    0.5674 C   0  0  0  0  0  0  0  0  0  0  0  0
    4.3626    1.2932   -0.3053 C   0  0  0  0  0  0  0  0  0  0  0  0
    3.5352   -0.0014   -0.5012 C   0  0  0  0  0  0  0  0  0  0  0  0
   -1.3851    1.1717   -1.9511 H   0  0  0  0  0  0  0  0  0  0  0  0
   -3.4733    2.3140   -1.3204 H   0  0  0  0  0  0  0  0  0  0  0  0
   -6.0144    1.2333    0.1166 H   0  0  0  0  0  0  0  0  0  0  0  0
   -5.3530    1.5457    1.7394 H   0  0  0  0  0  0  0  0  0  0  0  0
   -5.1009    2.7279    0.4329 H   0  0  0  0  0  0  0  0  0  0  0  0
   -4.0777   -0.5192    1.8096 H   0  0  0  0  0  0  0  0  0  0  0  0
   -1.9916   -1.6638    1.1764 H   0  0  0  0  0  0  0  0  0  0  0  0
   -0.1212   -2.1400    1.3487 H   0  0  0  0  0  0  0  0  0  0  0  0
    0.5657   -1.7890    2.8413 H   0  0  0  0  0  0  0  0  0  0  0  0
    1.8346    0.5893   -1.7183 H   0  0  0  0  0  0  0  0  0  0  0  0
    1.7343    2.6376   -0.7093 H   0  0  0  0  0  0  0  0  0  0  0  0
    1.2949    1.8549    0.8352 H   0  0  0  0  0  0  0  0  0  0  0  0
    3.6732    3.2229    0.4496 H   0  0  0  0  0  0  0  0  0  0  0  0
    3.4983    1.8729    1.6145 H   0  0  0  0  0  0  0  0  0  0  0  0
    4.5589    1.7749   -1.2632 H   0  0  0  0  0  0  0  0  0  0  0  0
    5.2941    1.0807    0.2194 H   0  0  0  0  0  0  0  0  0  0  0  0
    3.6227   -0.6461    0.3733 H   0  0  0  0  0  0  0  0  0  0  0  0
    3.8585   -0.5286   -1.3988 H   0  0  0  0  0  0  0  0  0  0  0  0
  1  2  2  0  0  0  0
  1  3  2  0  0  0  0
  1  4  1  0  0  0  0
  4  5  2  0  0  0  0
  5  6  1  0  0  0  0
  6  7  2  0  0  0  0
  7  8  1  0  0  0  0
  7  9  1  0  0  0  0
  9 10  2  0  0  0  0
  4 10  1  0  0  0  0
  1 11  1  0  0  0  0
 11 12  1  0  0  0  0
 12 13  2  0  0  0  0
 12 14  1  0  0  0  0
 11 15  1  0  0  0  0
 15 16  1  0  0  0  0
 16 17  1  0  0  0  0
 17 18  1  0  0  0  0
 18 19  1  0  0  0  0
 15 19  1  0  0  0  0
  5 20  1  0  0  0  0
  6 21  1  0  0  0  0
  8 22  1  0  0  0  0
  8 23  1  0  0  0  0
  8 24  1  0  0  0  0
  9 25  1  0  0  0  0
 10 26  1  0  0  0  0
 14 27  1  0  0  0  0
 14 28  1  0  0  0  0
 15 29  1  0  0  0  0
 16 30  1  0  0  0  0
 16 31  1  0  0  0  0
 17 32  1  0  0  0  0
 17 33  1  0  0  0  0
 18 34  1  0  0  0  0
 18 35  1  0  0  0  0
 19 36  1  0  0  0  0
 19 37  1  0  0  0  0
M  END
$$$$
