C4H6O2
APtclcactv12211716383D 0   0.00000     0.00000
 
 12 11  0  0  0  0  0  0  0  0999 V2000
    0.9965    0.0143   -0.0018 C   0  0  0  0  0  0  0  0  0  0  0  0
   -0.3769   -0.5084   -0.0017 C   0  0  0  0  0  0  0  0  0  0  0  0
   -1.4087    0.3320    0.0005 C   0  0  0  0  0  0  0  0  0  0  0  0
   -2.8172   -0.2041    0.0007 C   0  0  0  0  0  0  0  0  0  0  0  0
    1.1900    1.2141    0.0001 O   0  0  0  0  0  0  0  0  0  0  0  0
    2.0417   -0.8370    0.0015 O   0  0  0  0  0  0  0  0  0  0  0  0
   -0.5488   -1.5747   -0.0034 H   0  0  0  0  0  0  0  0  0  0  0  0
   -1.2368    1.3982    0.0023 H   0  0  0  0  0  0  0  0  0  0  0  0
   -2.9746   -0.8120   -0.8902 H   0  0  0  0  0  0  0  0  0  0  0  0
   -2.9733   -0.8151    0.8897 H   0  0  0  0  0  0  0  0  0  0  0  0
   -3.5223    0.6271    0.0027 H   0  0  0  0  0  0  0  0  0  0  0  0
    2.9262   -0.4462    0.0013 H   0  0  0  0  0  0  0  0  0  0  0  0
  1  2  1  0  0  0  0
  2  3  2  0  0  0  0
  3  4  1  0  0  0  0
  1  5  2  0  0  0  0
  1  6  1  0  0  0  0
  2  7  1  0  0  0  0
  3  8  1  0  0  0  0
  4  9  1  0  0  0  0
  4 10  1  0  0  0  0
  4 11  1  0  0  0  0
  6 12  1  0  0  0  0
M  END
$$$$
