C8H12O4
APtclcactv12151716333D 0   0.00000     0.00000
 
 24 24  0  0  1  0  0  0  0  0999 V2000
    0.2216   -0.7001   -0.3085 C   0  0  1  0  0  0  0  0  0  0  0  0
    0.2216   -0.6182   -1.3954 H   0  0  0  0  0  0  0  0  0  0  0  0
    0.2216    0.7001    0.3085 C   0  0  1  0  0  0  0  0  0  0  0  0
    0.2216    0.6182    1.3954 H   0  0  0  0  0  0  0  0  0  0  0  0
    1.4708    1.4576   -0.1459 C   0  0  0  0  0  0  0  0  0  0  0  0
    2.7201    0.7001    0.3085 C   0  0  0  0  0  0  0  0  0  0  0  0
    2.7201   -0.7001   -0.3085 C   0  0  0  0  0  0  0  0  0  0  0  0
    1.4708   -1.4576    0.1459 C   0  0  0  0  0  0  0  0  0  0  0  0
   -1.0089    1.4462   -0.1391 C   0  0  0  0  0  0  0  0  0  0  0  0
   -1.8042    0.9128   -0.8759 O   0  0  0  0  0  0  0  0  0  0  0  0
   -1.2213    2.7033    0.2808 O   0  0  0  0  0  0  0  0  0  0  0  0
   -1.0089   -1.4462    0.1391 C   0  0  0  0  0  0  0  0  0  0  0  0
   -1.8042   -0.9128    0.8759 O   0  0  0  0  0  0  0  0  0  0  0  0
   -1.2213   -2.7033   -0.2808 O   0  0  0  0  0  0  0  0  0  0  0  0
    1.4708    1.5395   -1.2328 H   0  0  0  0  0  0  0  0  0  0  0  0
    1.4708    2.4550    0.2936 H   0  0  0  0  0  0  0  0  0  0  0  0
    3.6101    1.2397   -0.0152 H   0  0  0  0  0  0  0  0  0  0  0  0
    2.7201    0.6182    1.3954 H   0  0  0  0  0  0  0  0  0  0  0  0
    2.7201   -0.6182   -1.3954 H   0  0  0  0  0  0  0  0  0  0  0  0
    3.6101   -1.2397    0.0152 H   0  0  0  0  0  0  0  0  0  0  0  0
    1.4708   -1.5395    1.2328 H   0  0  0  0  0  0  0  0  0  0  0  0
    1.4708   -2.4550   -0.2936 H   0  0  0  0  0  0  0  0  0  0  0  0
   -2.0243    3.1411   -0.0329 H   0  0  0  0  0  0  0  0  0  0  0  0
   -2.0243   -3.1411    0.0329 H   0  0  0  0  0  0  0  0  0  0  0  0
  1  2  1  0  0  0  0
  1  3  1  0  0  0  0
  3  4  1  0  0  0  0
  3  5  1  0  0  0  0
  5  6  1  0  0  0  0
  6  7  1  0  0  0  0
  7  8  1  0  0  0  0
  1  8  1  0  0  0  0
  3  9  1  0  0  0  0
  9 10  2  0  0  0  0
  9 11  1  0  0  0  0
  1 12  1  0  0  0  0
 12 13  2  0  0  0  0
 12 14  1  0  0  0  0
  5 15  1  0  0  0  0
  5 16  1  0  0  0  0
  6 17  1  0  0  0  0
  6 18  1  0  0  0  0
  7 19  1  0  0  0  0
  7 20  1  0  0  0  0
  8 21  1  0  0  0  0
  8 22  1  0  0  0  0
 11 23  1  0  0  0  0
 14 24  1  0  0  0  0
M  END
$$$$
