C2H2Cl2
APtclcactv12101715333D 0   0.00000     0.00000
 
  6  5  0  0  0  0  0  0  0  0999 V2000
    2.1407   -0.0385    0.0010 Cl  0  0  0  0  0  0  0  0  0  0  0  0
   -2.1407    0.0385    0.0009 Cl  0  0  0  0  0  0  0  0  0  0  0  0
    0.4756    0.4525   -0.0030 C   0  0  0  0  0  0  0  0  0  0  0  0
   -0.4756   -0.4525   -0.0023 C   0  0  0  0  0  0  0  0  0  0  0  0
    0.2222    1.5023   -0.0015 H   0  0  0  0  0  0  0  0  0  0  0  0
   -0.2222   -1.5023   -0.0038 H   0  0  0  0  0  0  0  0  0  0  0  0
  3  4  2  0  0  0  0
  3  5  1  0  0  0  0
  1  3  1  0  0  0  0
  4  6  1  0  0  0  0
  2  4  1  0  0  0  0
M  END
$$$$
