C12H19N6OP
APtclcactv12141705293D 0   0.00000     0.00000
 
 39 40  0  0  0  0  0  0  0  0999 V2000
   -5.6666    0.5201   -0.1637 C   0  0  0  0  0  0  0  0  0  0  0  0
   -5.2724   -0.8057   -0.1619 C   0  0  0  0  0  0  0  0  0  0  0  0
   -3.9342   -1.1304   -0.0686 C   0  0  0  0  0  0  0  0  0  0  0  0
   -4.7232    1.5276   -0.0724 C   0  0  0  0  0  0  0  0  0  0  0  0
   -3.3822    1.2144    0.0205 C   0  0  0  0  0  0  0  0  0  0  0  0
    1.4519    1.7564   -1.5837 C   0  0  0  0  0  0  0  0  0  0  0  0
    1.8082    2.8227    0.5608 C   0  0  0  0  0  0  0  0  0  0  0  0
    2.8906   -1.0189   -1.7338 C   0  0  0  0  0  0  0  0  0  0  0  0
    4.6207   -0.3361   -0.1836 C   0  0  0  0  0  0  0  0  0  0  0  0
    0.7844   -3.6297    0.2444 H   0  0  0  0  0  0  0  0  0  0  0  0
    2.0939   -2.5833    0.3580 H   0  0  0  0  0  0  0  0  0  0  0  0
   -2.9796   -0.1196    0.0236 C   0  0  0  0  0  0  0  0  0  0  0  0
   -1.5393   -0.4625    0.1237 C   0  0  0  0  0  0  0  0  0  0  0  0
    0.2770   -1.6453    0.2388 C   0  0  0  0  0  0  0  0  0  0  0  0
    2.5129    0.4007    1.8439 O   0  0  0  0  0  0  0  0  0  0  0  0
    1.1374   -2.7272    0.2850 N   0  0  0  0  0  0  0  0  0  0  0  0
   -0.5530    0.4004    0.2152 N   0  0  0  0  0  0  0  0  0  0  0  0
   -1.0324   -1.7040    0.1415 N   0  0  0  0  0  0  0  0  0  0  0  0
    2.2409    1.7498   -0.3446 N   0  0  0  0  0  0  0  0  0  0  0  0
    3.2376   -0.8113   -0.3216 N   0  0  0  0  0  0  0  0  0  0  0  0
    2.1589    0.2501    0.4148 P   0  0  0  0  0  0  0  0  0  0  0  0
    0.6354   -0.3438    0.2887 N   0  0  0  0  0  0  0  0  0  0  0  0
   -6.7145    0.7698   -0.2411 H   0  0  0  0  0  0  0  0  0  0  0  0
   -6.0132   -1.5884   -0.2334 H   0  0  0  0  0  0  0  0  0  0  0  0
   -3.6276   -2.1659   -0.0666 H   0  0  0  0  0  0  0  0  0  0  0  0
    0.4321    1.4384   -1.3667 H   0  0  0  0  0  0  0  0  0  0  0  0
    1.4376    2.7636   -2.0000 H   0  0  0  0  0  0  0  0  0  0  0  0
    1.9005    1.0720   -2.3037 H   0  0  0  0  0  0  0  0  0  0  0  0
    2.5052    2.8969    1.3955 H   0  0  0  0  0  0  0  0  0  0  0  0
    1.7876    3.7686    0.0195 H   0  0  0  0  0  0  0  0  0  0  0  0
    0.8108    2.5987    0.9390 H   0  0  0  0  0  0  0  0  0  0  0  0
    3.0810   -0.1029   -2.2932 H   0  0  0  0  0  0  0  0  0  0  0  0
    3.4978   -1.8268   -2.1422 H   0  0  0  0  0  0  0  0  0  0  0  0
    1.8356   -1.2810   -1.8141 H   0  0  0  0  0  0  0  0  0  0  0  0
    4.8469   -0.1773    0.8708 H   0  0  0  0  0  0  0  0  0  0  0  0
    5.3033   -1.0806   -0.5935 H   0  0  0  0  0  0  0  0  0  0  0  0
    4.7383    0.6022   -0.7258 H   0  0  0  0  0  0  0  0  0  0  0  0
   -5.0364    2.5611   -0.0743 H   0  0  0  0  0  0  0  0  0  0  0  0
   -2.6464    2.0018    0.0909 H   0  0  0  0  0  0  0  0  0  0  0  0
  1  2  1  0  0  0  0
  2  3  2  0  0  0  0
  3 12  1  0  0  0  0
 12 13  1  0  0  0  0
 13 17  2  0  0  0  0
 17 22  1  0  0  0  0
 21 22  1  0  0  0  0
 15 21  2  0  0  0  0
 19 21  1  0  0  0  0
  6 19  1  0  0  0  0
  7 19  1  0  0  0  0
 20 21  1  0  0  0  0
  8 20  1  0  0  0  0
  9 20  1  0  0  0  0
 13 18  1  0  0  0  0
 14 18  2  0  0  0  0
 14 22  1  0  0  0  0
 14 16  1  0  0  0  0
  1  4  2  0  0  0  0
  4  5  1  0  0  0  0
  5 12  2  0  0  0  0
  1 23  1  0  0  0  0
  2 24  1  0  0  0  0
  3 25  1  0  0  0  0
  6 26  1  0  0  0  0
  6 27  1  0  0  0  0
  6 28  1  0  0  0  0
  7 29  1  0  0  0  0
  7 30  1  0  0  0  0
  7 31  1  0  0  0  0
  8 32  1  0  0  0  0
  8 33  1  0  0  0  0
  8 34  1  0  0  0  0
  9 35  1  0  0  0  0
  9 36  1  0  0  0  0
  9 37  1  0  0  0  0
 10 16  1  0  0  0  0
 11 16  1  0  0  0  0
  4 38  1  0  0  0  0
  5 39  1  0  0  0  0
M  END
$$$$
