C14H16ClN3O2
APtclcactv12211717023D 0   0.00000     0.00000
 
 36 37  0  0  0  0  0  0  0  0999 V2000
   -1.0401    2.0321    0.8316 C   0  0  0  0  0  0  0  0  0  0  0  0
   -1.8841    3.0957   -0.8495 C   0  0  0  0  0  0  0  0  0  0  0  0
    1.5690    0.0241    0.5874 C   0  0  0  0  0  0  0  0  0  0  0  0
    2.2814   -0.9620   -1.4833 C   0  0  0  0  0  0  0  0  0  0  0  0
    2.8880    0.1546    0.9767 C   0  0  0  0  0  0  0  0  0  0  0  0
    3.5992   -0.8299   -1.0905 C   0  0  0  0  0  0  0  0  0  0  0  0
   -4.5741   -1.9457    0.1009 C   0  0  0  0  0  0  0  0  0  0  0  0
   -3.8749    0.2750    1.0076 C   0  0  0  0  0  0  0  0  0  0  0  0
   -2.8647   -1.8206    1.9188 C   0  0  0  0  0  0  0  0  0  0  0  0
    1.2624   -0.5350   -0.6445 C   0  0  0  0  0  0  0  0  0  0  0  0
    3.9030   -0.2720    0.1387 C   0  0  0  0  0  0  0  0  0  0  0  0
   -2.4512   -1.5955   -1.4472 O   0  0  0  0  0  0  0  0  0  0  0  0
   -2.3074   -1.0597   -0.3746 C   0  0  0  0  0  0  0  0  0  0  0  0
   -0.0349   -0.6646   -1.0291 O   0  0  0  0  0  0  0  0  0  0  0  0
   -1.0341   -0.3134   -0.0698 C   0  0  0  0  0  0  0  0  0  0  0  0
    5.5598   -0.1064    0.6298 Cl  0  0  0  0  0  0  0  0  0  0  0  0
   -1.8329    1.8410   -1.2124 N   0  0  0  0  0  0  0  0  0  0  0  0
   -1.4035    3.2081    0.3881 N   0  0  0  0  0  0  0  0  0  0  0  0
   -3.4011   -1.1375    0.6592 C   0  0  0  0  0  0  0  0  0  0  0  0
   -1.2861    1.1283   -0.1327 N   0  0  0  0  0  0  0  0  0  0  0  0
   -0.6878   -0.5785    0.9292 H   0  0  0  0  0  0  0  0  0  0  0  0
   -0.6125    1.8243    1.8014 H   0  0  0  0  0  0  0  0  0  0  0  0
   -2.2557    3.9093   -1.4547 H   0  0  0  0  0  0  0  0  0  0  0  0
    0.7768    0.3531    1.2437 H   0  0  0  0  0  0  0  0  0  0  0  0
    2.0446   -1.3973   -2.4430 H   0  0  0  0  0  0  0  0  0  0  0  0
   -4.2366   -2.9519   -0.1473 H   0  0  0  0  0  0  0  0  0  0  0  0
   -5.3652   -2.0019    0.8486 H   0  0  0  0  0  0  0  0  0  0  0  0
   -4.9562   -1.4590   -0.7964 H   0  0  0  0  0  0  0  0  0  0  0  0
   -4.2570    0.7617    0.1103 H   0  0  0  0  0  0  0  0  0  0  0  0
   -4.6660    0.2188    1.7553 H   0  0  0  0  0  0  0  0  0  0  0  0
   -3.0392    0.8508    1.4054 H   0  0  0  0  0  0  0  0  0  0  0  0
   -2.0290   -1.2448    2.3165 H   0  0  0  0  0  0  0  0  0  0  0  0
   -3.6558   -1.8768    2.6665 H   0  0  0  0  0  0  0  0  0  0  0  0
   -2.5272   -2.8269    1.6706 H   0  0  0  0  0  0  0  0  0  0  0  0
    3.1271    0.5901    1.9356 H   0  0  0  0  0  0  0  0  0  0  0  0
    4.3928   -1.1626   -1.7431 H   0  0  0  0  0  0  0  0  0  0  0  0
 15 20  1  0  0  0  0
 14 15  1  0  0  0  0
 13 15  1  0  0  0  0
  1 20  1  0  0  0  0
 17 20  1  0  0  0  0
 10 14  1  0  0  0  0
 13 19  1  0  0  0  0
 12 13  2  0  0  0  0
  1 18  2  0  0  0  0
  2 17  2  0  0  0  0
  3 10  2  0  0  0  0
  4 10  1  0  0  0  0
  7 19  1  0  0  0  0
  8 19  1  0  0  0  0
  9 19  1  0  0  0  0
  3  5  1  0  0  0  0
  4  6  2  0  0  0  0
  5 11  2  0  0  0  0
 11 16  1  0  0  0  0
  2 18  1  0  0  0  0
  6 11  1  0  0  0  0
 15 21  1  0  0  0  0
  1 22  1  0  0  0  0
  2 23  1  0  0  0  0
  3 24  1  0  0  0  0
  4 25  1  0  0  0  0
  7 26  1  0  0  0  0
  7 27  1  0  0  0  0
  7 28  1  0  0  0  0
  8 29  1  0  0  0  0
  8 30  1  0  0  0  0
  8 31  1  0  0  0  0
  9 32  1  0  0  0  0
  9 33  1  0  0  0  0
  9 34  1  0  0  0  0
  5 35  1  0  0  0  0
  6 36  1  0  0  0  0
M  END
$$$$
