C9H14O6
APtclcactv12151716503D 0   0.00000     0.00000
 
 29 28  0  0  0  0  0  0  0  0999 V2000
    4.7140   -0.4704    0.4408 C   0  0  0  0  0  0  0  0  0  0  0  0
    3.3962   -1.0847    0.0443 C   0  0  0  0  0  0  0  0  0  0  0  0
    2.2521   -0.4174    0.2622 O   0  0  0  0  0  0  0  0  0  0  0  0
    1.0205   -1.0699   -0.1451 C   0  0  0  0  0  0  0  0  0  0  0  0
   -0.1685   -0.1639    0.1808 C   0  0  0  0  0  0  0  0  0  0  0  0
   -0.0906    1.0441   -0.6209 O   0  0  0  0  0  0  0  0  0  0  0  0
    0.5816    2.0810   -0.0968 C   0  0  0  0  0  0  0  0  0  0  0  0
    0.7046    3.3681   -0.8710 C   0  0  0  0  0  0  0  0  0  0  0  0
    1.0882    1.9824    0.9957 O   0  0  0  0  0  0  0  0  0  0  0  0
   -1.4722   -0.9009   -0.1327 C   0  0  0  0  0  0  0  0  0  0  0  0
   -2.6003   -0.0884    0.2862 O   0  0  0  0  0  0  0  0  0  0  0  0
   -3.8261   -0.5951    0.0801 C   0  0  0  0  0  0  0  0  0  0  0  0
   -5.0450    0.1911    0.4891 C   0  0  0  0  0  0  0  0  0  0  0  0
   -3.9522   -1.6815   -0.4334 O   0  0  0  0  0  0  0  0  0  0  0  0
    3.3695   -2.1778   -0.4697 O   0  0  0  0  0  0  0  0  0  0  0  0
    4.5391    0.5094    0.8851 H   0  0  0  0  0  0  0  0  0  0  0  0
    5.2116   -1.1145    1.1658 H   0  0  0  0  0  0  0  0  0  0  0  0
    5.3444   -0.3619   -0.4417 H   0  0  0  0  0  0  0  0  0  0  0  0
    1.0483   -1.2612   -1.2178 H   0  0  0  0  0  0  0  0  0  0  0  0
    0.9154   -2.0138    0.3897 H   0  0  0  0  0  0  0  0  0  0  0  0
   -0.1454    0.0996    1.2382 H   0  0  0  0  0  0  0  0  0  0  0  0
   -0.1324    4.0215   -0.6249 H   0  0  0  0  0  0  0  0  0  0  0  0
    1.6403    3.8618   -0.6088 H   0  0  0  0  0  0  0  0  0  0  0  0
    0.6948    3.1518   -1.9393 H   0  0  0  0  0  0  0  0  0  0  0  0
   -1.5361   -1.0860   -1.2050 H   0  0  0  0  0  0  0  0  0  0  0  0
   -1.4902   -1.8508    0.4017 H   0  0  0  0  0  0  0  0  0  0  0  0
   -4.7350    1.1381    0.9310 H   0  0  0  0  0  0  0  0  0  0  0  0
   -5.6636    0.3843   -0.3873 H   0  0  0  0  0  0  0  0  0  0  0  0
   -5.6178   -0.3804    1.2194 H   0  0  0  0  0  0  0  0  0  0  0  0
  1  2  1  0  0  0  0
  2  3  1  0  0  0  0
  3  4  1  0  0  0  0
  4  5  1  0  0  0  0
  5  6  1  0  0  0  0
  6  7  1  0  0  0  0
  7  8  1  0  0  0  0
  7  9  2  0  0  0  0
  5 10  1  0  0  0  0
 10 11  1  0  0  0  0
 11 12  1  0  0  0  0
 12 13  1  0  0  0  0
 12 14  2  0  0  0  0
  2 15  2  0  0  0  0
  1 16  1  0  0  0  0
  1 17  1  0  0  0  0
  1 18  1  0  0  0  0
  4 19  1  0  0  0  0
  4 20  1  0  0  0  0
  5 21  1  0  0  0  0
  8 22  1  0  0  0  0
  8 23  1  0  0  0  0
  8 24  1  0  0  0  0
 10 25  1  0  0  0  0
 10 26  1  0  0  0  0
 13 27  1  0  0  0  0
 13 28  1  0  0  0  0
 13 29  1  0  0  0  0
M  END
$$$$
