C12H16N3O3PS
APtclcactv12111705013D 0   0.00000     0.00000
 
 36 37  0  0  0  0  0  0  0  0999 V2000
    1.8552   -1.4248    1.1550 C   0  0  0  0  0  0  0  0  0  0  0  0
    4.1410    1.2458    0.3383 C   0  0  0  0  0  0  0  0  0  0  0  0
    4.2264   -0.9500   -0.6348 C   0  0  0  0  0  0  0  0  0  0  0  0
    5.3986    1.5144   -0.1655 C   0  0  0  0  0  0  0  0  0  0  0  0
    5.4838   -0.6755   -1.1359 C   0  0  0  0  0  0  0  0  0  0  0  0
    6.0694    0.5551   -0.9017 C   0  0  0  0  0  0  0  0  0  0  0  0
   -3.2049   -1.9089   -0.9257 C   0  0  0  0  0  0  0  0  0  0  0  0
   -4.3159    1.4385   -0.6005 C   0  0  0  0  0  0  0  0  0  0  0  0
   -3.5042   -3.3791   -0.6260 C   0  0  0  0  0  0  0  0  0  0  0  0
   -5.4107    2.3651   -0.0679 C   0  0  0  0  0  0  0  0  0  0  0  0
    0.1896   -0.0449    1.2148 C   0  0  0  0  0  0  0  0  0  0  0  0
    3.5503    0.0111    0.1048 C   0  0  0  0  0  0  0  0  0  0  0  0
   -1.0548    0.4480    1.4475 O   0  0  0  0  0  0  0  0  0  0  0  0
   -2.5493   -1.3175    0.1979 O   0  0  0  0  0  0  0  0  0  0  0  0
   -3.3740    1.1672    0.4393 O   0  0  0  0  0  0  0  0  0  0  0  0
    1.1801    0.6142    0.6640 N   0  0  0  0  0  0  0  0  0  0  0  0
    0.6037   -1.2799    1.5105 N   0  0  0  0  0  0  0  0  0  0  0  0
   -2.0859    0.2240    0.2314 P   0  0  0  0  0  0  0  0  0  0  0  0
   -1.2520    0.6571   -1.3779 S   0  0  0  0  0  0  0  0  0  0  0  0
    2.2745   -0.2646    0.6151 N   0  0  0  0  0  0  0  0  0  0  0  0
   -2.5586   -1.8407   -1.8008 H   0  0  0  0  0  0  0  0  0  0  0  0
   -4.1381   -1.3807   -1.1213 H   0  0  0  0  0  0  0  0  0  0  0  0
   -4.7635    0.5038   -0.9382 H   0  0  0  0  0  0  0  0  0  0  0  0
   -3.8067    1.9200   -1.4354 H   0  0  0  0  0  0  0  0  0  0  0  0
    2.4495   -2.3182    1.2778 H   0  0  0  0  0  0  0  0  0  0  0  0
   -2.5710   -3.9073   -0.4304 H   0  0  0  0  0  0  0  0  0  0  0  0
   -4.1505   -3.4472    0.2491 H   0  0  0  0  0  0  0  0  0  0  0  0
   -4.0042   -3.8301   -1.4831 H   0  0  0  0  0  0  0  0  0  0  0  0
   -4.9630    3.2998    0.2698 H   0  0  0  0  0  0  0  0  0  0  0  0
   -6.1291    2.5721   -0.8610 H   0  0  0  0  0  0  0  0  0  0  0  0
   -5.9198    1.8837    0.7670 H   0  0  0  0  0  0  0  0  0  0  0  0
    3.6194    1.9938    0.9170 H   0  0  0  0  0  0  0  0  0  0  0  0
    3.7695   -1.9113   -0.8180 H   0  0  0  0  0  0  0  0  0  0  0  0
    5.8585    2.4747    0.0154 H   0  0  0  0  0  0  0  0  0  0  0  0
    6.0101   -1.4227   -1.7113 H   0  0  0  0  0  0  0  0  0  0  0  0
    7.0526    0.7676   -1.2950 H   0  0  0  0  0  0  0  0  0  0  0  0
 13 18  1  0  0  0  0
 14 18  1  0  0  0  0
 15 18  1  0  0  0  0
 18 19  2  0  0  0  0
 11 13  1  0  0  0  0
 11 16  2  0  0  0  0
 11 17  1  0  0  0  0
  7 14  1  0  0  0  0
  8 15  1  0  0  0  0
 16 20  1  0  0  0  0
  1 17  2  0  0  0  0
  7  9  1  0  0  0  0
  8 10  1  0  0  0  0
  1 20  1  0  0  0  0
 12 20  1  0  0  0  0
  2 12  2  0  0  0  0
  3 12  1  0  0  0  0
  2  4  1  0  0  0  0
  3  5  2  0  0  0  0
  4  6  2  0  0  0  0
  5  6  1  0  0  0  0
  7 21  1  0  0  0  0
  7 22  1  0  0  0  0
  8 23  1  0  0  0  0
  8 24  1  0  0  0  0
  1 25  1  0  0  0  0
  9 26  1  0  0  0  0
  9 27  1  0  0  0  0
  9 28  1  0  0  0  0
 10 29  1  0  0  0  0
 10 30  1  0  0  0  0
 10 31  1  0  0  0  0
  2 32  1  0  0  0  0
  3 33  1  0  0  0  0
  4 34  1  0  0  0  0
  5 35  1  0  0  0  0
  6 36  1  0  0  0  0
M  END
$$$$
