C12H27N
APtclcactv12141705303D 0   0.00000     0.00000
 
 40 39  0  0  0  0  0  0  0  0999 V2000
   -0.7772   -1.1187    0.5303 C   0  0  0  0  0  0  0  0  0  0  0  0
   -0.3531   -2.3733   -0.2358 C   0  0  0  0  0  0  0  0  0  0  0  0
   -1.1857   -3.5662    0.2381 C   0  0  0  0  0  0  0  0  0  0  0  0
   -0.7616   -4.8208   -0.5281 C   0  0  0  0  0  0  0  0  0  0  0  0
    0.0213    0.0269    0.0743 N   0  0  0  0  0  0  0  0  0  0  0  0
   -0.5918    1.2951    0.4910 C   0  0  0  0  0  0  0  0  0  0  0  0
   -1.9303    1.4751   -0.2280 C   0  0  0  0  0  0  0  0  0  0  0  0
   -2.5688    2.7960    0.2060 C   0  0  0  0  0  0  0  0  0  0  0  0
   -3.9073    2.9760   -0.5131 C   0  0  0  0  0  0  0  0  0  0  0  0
    1.4058   -0.0716    0.5553 C   0  0  0  0  0  0  0  0  0  0  0  0
    2.2913    0.8907   -0.2389 C   0  0  0  0  0  0  0  0  0  0  0  0
    3.7383    0.7676    0.2427 C   0  0  0  0  0  0  0  0  0  0  0  0
    4.6238    1.7300   -0.5514 C   0  0  0  0  0  0  0  0  0  0  0  0
   -1.8335   -0.9211    0.3476 H   0  0  0  0  0  0  0  0  0  0  0  0
   -0.6156   -1.2725    1.5973 H   0  0  0  0  0  0  0  0  0  0  0  0
   -0.5137   -2.2191   -1.3029 H   0  0  0  0  0  0  0  0  0  0  0  0
    0.7029   -2.5715   -0.0523 H   0  0  0  0  0  0  0  0  0  0  0  0
   -1.0251   -3.7204    1.3051 H   0  0  0  0  0  0  0  0  0  0  0  0
   -2.2417   -3.3680    0.0546 H   0  0  0  0  0  0  0  0  0  0  0  0
   -1.3548   -5.6706   -0.1905 H   0  0  0  0  0  0  0  0  0  0  0  0
   -0.9223   -4.6665   -1.5951 H   0  0  0  0  0  0  0  0  0  0  0  0
    0.2944   -5.0189   -0.3446 H   0  0  0  0  0  0  0  0  0  0  0  0
   -0.7570    1.2822    1.5683 H   0  0  0  0  0  0  0  0  0  0  0  0
    0.0720    2.1210    0.2351 H   0  0  0  0  0  0  0  0  0  0  0  0
   -1.7651    1.4881   -1.3054 H   0  0  0  0  0  0  0  0  0  0  0  0
   -2.5941    0.6493    0.0279 H   0  0  0  0  0  0  0  0  0  0  0  0
   -2.7340    2.7830    1.2833 H   0  0  0  0  0  0  0  0  0  0  0  0
   -1.9050    3.6218   -0.0499 H   0  0  0  0  0  0  0  0  0  0  0  0
   -4.5711    2.1502   -0.2572 H   0  0  0  0  0  0  0  0  0  0  0  0
   -4.3622    3.9170   -0.2039 H   0  0  0  0  0  0  0  0  0  0  0  0
   -3.7421    2.9889   -1.5904 H   0  0  0  0  0  0  0  0  0  0  0  0
    1.4425    0.1897    1.6128 H   0  0  0  0  0  0  0  0  0  0  0  0
    1.7656   -1.0916    0.4204 H   0  0  0  0  0  0  0  0  0  0  0  0
    2.2388    0.6420   -1.2988 H   0  0  0  0  0  0  0  0  0  0  0  0
    1.9438    1.9128   -0.0879 H   0  0  0  0  0  0  0  0  0  0  0  0
    3.7908    1.0164    1.3027 H   0  0  0  0  0  0  0  0  0  0  0  0
    4.0858   -0.2544    0.0917 H   0  0  0  0  0  0  0  0  0  0  0  0
    4.5712    1.4813   -1.6114 H   0  0  0  0  0  0  0  0  0  0  0  0
    4.2763    2.7520   -0.4004 H   0  0  0  0  0  0  0  0  0  0  0  0
    5.6546    1.6423   -0.2083 H   0  0  0  0  0  0  0  0  0  0  0  0
  1  2  1  0  0  0  0
  2  3  1  0  0  0  0
  3  4  1  0  0  0  0
  1  5  1  0  0  0  0
  5  6  1  0  0  0  0
  6  7  1  0  0  0  0
  7  8  1  0  0  0  0
  8  9  1  0  0  0  0
  5 10  1  0  0  0  0
 10 11  1  0  0  0  0
 11 12  1  0  0  0  0
 12 13  1  0  0  0  0
  1 14  1  0  0  0  0
  1 15  1  0  0  0  0
  2 16  1  0  0  0  0
  2 17  1  0  0  0  0
  3 18  1  0  0  0  0
  3 19  1  0  0  0  0
  4 20  1  0  0  0  0
  4 21  1  0  0  0  0
  4 22  1  0  0  0  0
  6 23  1  0  0  0  0
  6 24  1  0  0  0  0
  7 25  1  0  0  0  0
  7 26  1  0  0  0  0
  8 27  1  0  0  0  0
  8 28  1  0  0  0  0
  9 29  1  0  0  0  0
  9 30  1  0  0  0  0
  9 31  1  0  0  0  0
 10 32  1  0  0  0  0
 10 33  1  0  0  0  0
 11 34  1  0  0  0  0
 11 35  1  0  0  0  0
 12 36  1  0  0  0  0
 12 37  1  0  0  0  0
 13 38  1  0  0  0  0
 13 39  1  0  0  0  0
 13 40  1  0  0  0  0
M  END
$$$$
