C3Cl3N3O3
APtclcactv12211716363D 0   0.00000     0.00000
 
 12 12  0  0  0  0  0  0  0  0999 V2000
   -3.0190    0.4853   -0.0015 Cl  0  0  0  0  0  0  0  0  0  0  0  0
   -1.3307    0.2139   -0.0011 N   0  0  0  0  0  0  0  0  0  0  0  0
   -0.4801    1.2594   -0.0000 C   0  0  0  0  0  0  0  0  0  0  0  0
    0.8506    1.0455    0.0003 N   0  0  0  0  0  0  0  0  0  0  0  0
    1.3307   -0.2139   -0.0001 C   0  0  0  0  0  0  0  0  0  0  0  0
    0.4801   -1.2594   -0.0002 N   0  0  0  0  0  0  0  0  0  0  0  0
   -0.8506   -1.0454    0.0038 C   0  0  0  0  0  0  0  0  0  0  0  0
   -1.6175   -1.9880    0.0036 O   0  0  0  0  0  0  0  0  0  0  0  0
    1.0892   -2.8572   -0.0013 Cl  0  0  0  0  0  0  0  0  0  0  0  0
    2.5304   -0.4068   -0.0006 O   0  0  0  0  0  0  0  0  0  0  0  0
    1.9298    2.3719    0.0005 Cl  0  0  0  0  0  0  0  0  0  0  0  0
   -0.9129    2.3948    0.0003 O   0  0  0  0  0  0  0  0  0  0  0  0
  1  2  1  0  0  0  0
  2  3  1  0  0  0  0
  3  4  1  0  0  0  0
  4  5  1  0  0  0  0
  5  6  1  0  0  0  0
  6  7  1  0  0  0  0
  2  7  1  0  0  0  0
  7  8  2  0  0  0  0
  6  9  1  0  0  0  0
  5 10  2  0  0  0  0
  4 11  1  0  0  0  0
  3 12  2  0  0  0  0
M  END
$$$$
