C6H8O6
APtclcactv12211716553D 0   0.00000     0.00000
 
 20 19  0  0  0  0  0  0  0  0999 V2000
    2.4955   -0.4490    0.2322 C   0  0  0  0  0  0  0  0  0  0  0  0
    1.2899   -1.0807   -0.4147 C   0  0  0  0  0  0  0  0  0  0  0  0
    0.0197   -0.4014    0.1009 C   0  0  0  0  0  0  0  0  0  0  0  0
    0.0033    1.0380   -0.3454 C   0  0  0  0  0  0  0  0  0  0  0  0
    0.9141    1.4755   -1.0078 O   0  0  0  0  0  0  0  0  0  0  0  0
   -1.0232    1.8339   -0.0069 O   0  0  0  0  0  0  0  0  0  0  0  0
   -1.2078   -1.1229   -0.4591 C   0  0  0  0  0  0  0  0  0  0  0  0
   -2.4562   -0.5326    0.1444 C   0  0  0  0  0  0  0  0  0  0  0  0
   -2.3727    0.3723    0.9406 O   0  0  0  0  0  0  0  0  0  0  0  0
   -3.6609   -1.0122   -0.2027 O   0  0  0  0  0  0  0  0  0  0  0  0
    2.3533    0.4522    1.0245 O   0  0  0  0  0  0  0  0  0  0  0  0
    3.7269   -0.8911   -0.0674 O   0  0  0  0  0  0  0  0  0  0  0  0
    1.3530   -0.9602   -1.4962 H   0  0  0  0  0  0  0  0  0  0  0  0
    1.2598   -2.1421   -0.1685 H   0  0  0  0  0  0  0  0  0  0  0  0
    0.0011   -0.4444    1.1899 H   0  0  0  0  0  0  0  0  0  0  0  0
   -0.9893    2.7495   -0.3162 H   0  0  0  0  0  0  0  0  0  0  0  0
   -1.2365   -1.0040   -1.5422 H   0  0  0  0  0  0  0  0  0  0  0  0
   -1.1506   -2.1828   -0.2113 H   0  0  0  0  0  0  0  0  0  0  0  0
   -4.4326   -0.6016    0.2108 H   0  0  0  0  0  0  0  0  0  0  0  0
    4.4692   -0.4548    0.3728 H   0  0  0  0  0  0  0  0  0  0  0  0
  1  2  1  0  0  0  0
  2  3  1  0  0  0  0
  3  4  1  0  0  0  0
  4  5  2  0  0  0  0
  4  6  1  0  0  0  0
  3  7  1  0  0  0  0
  7  8  1  0  0  0  0
  8  9  2  0  0  0  0
  8 10  1  0  0  0  0
  1 11  2  0  0  0  0
  1 12  1  0  0  0  0
  2 13  1  0  0  0  0
  2 14  1  0  0  0  0
  3 15  1  0  0  0  0
  6 16  1  0  0  0  0
  7 17  1  0  0  0  0
  7 18  1  0  0  0  0
 10 19  1  0  0  0  0
 12 20  1  0  0  0  0
M  END
$$$$
