C9H7N3S
APtclcactv12151716423D 0   0.00000     0.00000
 
 20 22  0  0  0  0  0  0  0  0999 V2000
    1.7654    1.5665    0.0002 C   0  0  0  0  0  0  0  0  0  0  0  0
   -2.1850   -1.4627    0.0006 C   0  0  0  0  0  0  0  0  0  0  0  0
   -2.8220    0.8393    0.0003 C   0  0  0  0  0  0  0  0  0  0  0  0
   -3.1746   -0.4994    0.0007 C   0  0  0  0  0  0  0  0  0  0  0  0
   -1.1459    2.6847   -0.0007 C   0  0  0  0  0  0  0  0  0  0  0  0
   -1.5002    1.2199   -0.0007 C   0  0  0  0  0  0  0  0  0  0  0  0
   -0.4785    0.2585   -0.0001 C   0  0  0  0  0  0  0  0  0  0  0  0
    1.7043   -0.6010   -0.0001 C   0  0  0  0  0  0  0  0  0  0  0  0
   -0.8528   -1.0828    0.0002 C   0  0  0  0  0  0  0  0  0  0  0  0
    2.9497   -0.1928    0.0004 N   0  0  0  0  0  0  0  0  0  0  0  0
    2.9779    1.0926    0.0006 N   0  0  0  0  0  0  0  0  0  0  0  0
    0.6483   -2.0177   -0.0006 S   0  0  0  0  0  0  0  0  0  0  0  0
    0.8976    0.4908   -0.0003 N   0  0  0  0  0  0  0  0  0  0  0  0
    1.4881    2.6103    0.0042 H   0  0  0  0  0  0  0  0  0  0  0  0
   -2.4492   -2.5099    0.0013 H   0  0  0  0  0  0  0  0  0  0  0  0
   -3.5943    1.5943   -0.0005 H   0  0  0  0  0  0  0  0  0  0  0  0
   -1.0599    3.0378   -1.0283 H   0  0  0  0  0  0  0  0  0  0  0  0
   -1.9258    3.2471    0.5127 H   0  0  0  0  0  0  0  0  0  0  0  0
   -0.1957    2.8286    0.5137 H   0  0  0  0  0  0  0  0  0  0  0  0
   -4.2153   -0.7882    0.0006 H   0  0  0  0  0  0  0  0  0  0  0  0
  7 13  1  0  0  0  0
  8 13  1  0  0  0  0
  1 13  1  0  0  0  0
  7  9  1  0  0  0  0
  6  7  2  0  0  0  0
  8 12  1  0  0  0  0
  8 10  2  0  0  0  0
  1 11  2  0  0  0  0
  2  9  2  0  0  0  0
  3  6  1  0  0  0  0
  5  6  1  0  0  0  0
  2  4  1  0  0  0  0
  9 12  1  0  0  0  0
 10 11  1  0  0  0  0
  3  4  2  0  0  0  0
  1 14  1  0  0  0  0
  2 15  1  0  0  0  0
  3 16  1  0  0  0  0
  5 17  1  0  0  0  0
  5 18  1  0  0  0  0
  5 19  1  0  0  0  0
  4 20  1  0  0  0  0
M  END
$$$$
