C12H7Cl3
APtclcactv12111704543D 0   0.00000     0.00000
 
 22 23  0  0  0  0  0  0  0  0999 V2000
   -3.8647   -1.1673   -0.1075 Cl  0  0  0  0  0  0  0  0  0  0  0  0
   -2.1399   -0.9709   -0.0915 C   0  0  0  0  0  0  0  0  0  0  0  0
   -1.5904    0.2942    0.0336 C   0  0  0  0  0  0  0  0  0  0  0  0
   -0.2174    0.4549    0.0463 C   0  0  0  0  0  0  0  0  0  0  0  0
    0.6128   -0.6594   -0.0667 C   0  0  0  0  0  0  0  0  0  0  0  0
    0.0534   -1.9296   -0.1918 C   0  0  0  0  0  0  0  0  0  0  0  0
   -1.3182   -2.0801   -0.1982 C   0  0  0  0  0  0  0  0  0  0  0  0
    2.0872   -0.4935   -0.0542 C   0  0  0  0  0  0  0  0  0  0  0  0
    2.8714   -1.2726    0.7942 C   0  0  0  0  0  0  0  0  0  0  0  0
    4.2425   -1.1144    0.8013 C   0  0  0  0  0  0  0  0  0  0  0  0
    4.8382   -0.1841   -0.0312 C   0  0  0  0  0  0  0  0  0  0  0  0
    4.0646    0.5923   -0.8750 C   0  0  0  0  0  0  0  0  0  0  0  0
    2.6932    0.4381   -0.8949 C   0  0  0  0  0  0  0  0  0  0  0  0
    0.4715    2.0408    0.2020 Cl  0  0  0  0  0  0  0  0  0  0  0  0
   -2.6269    1.6797    0.1741 Cl  0  0  0  0  0  0  0  0  0  0  0  0
    0.6926   -2.7956   -0.2799 H   0  0  0  0  0  0  0  0  0  0  0  0
   -1.7518   -3.0645   -0.2952 H   0  0  0  0  0  0  0  0  0  0  0  0
    2.4072   -1.9987    1.4451 H   0  0  0  0  0  0  0  0  0  0  0  0
    4.8513   -1.7177    1.4584 H   0  0  0  0  0  0  0  0  0  0  0  0
    5.9114   -0.0634   -0.0221 H   0  0  0  0  0  0  0  0  0  0  0  0
    4.5349    1.3176   -1.5224 H   0  0  0  0  0  0  0  0  0  0  0  0
    2.0901    1.0445   -1.5543 H   0  0  0  0  0  0  0  0  0  0  0  0
  1  2  1  0  0  0  0
  2  3  2  0  0  0  0
  3  4  1  0  0  0  0
  4  5  2  0  0  0  0
  5  6  1  0  0  0  0
  6  7  2  0  0  0  0
  2  7  1  0  0  0  0
  5  8  1  0  0  0  0
  8  9  2  0  0  0  0
  9 10  1  0  0  0  0
 10 11  2  0  0  0  0
 11 12  1  0  0  0  0
 12 13  2  0  0  0  0
  8 13  1  0  0  0  0
  4 14  1  0  0  0  0
  3 15  1  0  0  0  0
  6 16  1  0  0  0  0
  7 17  1  0  0  0  0
  9 18  1  0  0  0  0
 10 19  1  0  0  0  0
 11 20  1  0  0  0  0
 12 21  1  0  0  0  0
 13 22  1  0  0  0  0
M  END
$$$$
