C6H15O4P
APtclcactv12211717013D 0   0.00000     0.00000
 
 26 25  0  0  0  0  0  0  0  0999 V2000
    0.0000   -0.3457   -0.3849 P   0  0  0  0  0  0  0  0  0  0  0  0
    0.0000   -0.9754   -1.7242 O   0  0  0  0  0  0  0  0  0  0  0  0
   -0.0000    1.2563   -0.5450 O   0  0  0  0  0  0  0  0  0  0  0  0
    0.0000    2.1500    0.5701 C   0  0  0  0  0  0  0  0  0  0  0  0
   -0.0000    3.5945    0.0660 C   0  0  0  0  0  0  0  0  0  0  0  0
   -1.3146   -0.8042    0.4237 O   0  0  0  0  0  0  0  0  0  0  0  0
   -2.6393   -0.6359   -0.0849 C   0  0  0  0  0  0  0  0  0  0  0  0
   -3.6480   -1.1760    0.9308 C   0  0  0  0  0  0  0  0  0  0  0  0
    1.3146   -0.8042    0.4237 O   0  0  0  0  0  0  0  0  0  0  0  0
    2.6393   -0.6359   -0.0849 C   0  0  0  0  0  0  0  0  0  0  0  0
    3.6480   -1.1760    0.9308 C   0  0  0  0  0  0  0  0  0  0  0  0
   -0.8900    1.9762    1.1749 H   0  0  0  0  0  0  0  0  0  0  0  0
    0.8900    1.9762    1.1749 H   0  0  0  0  0  0  0  0  0  0  0  0
   -0.0000    4.2762    0.9165 H   0  0  0  0  0  0  0  0  0  0  0  0
    0.8900    3.7683   -0.5389 H   0  0  0  0  0  0  0  0  0  0  0  0
   -0.8900    3.7683   -0.5389 H   0  0  0  0  0  0  0  0  0  0  0  0
   -2.8300    0.4232   -0.2585 H   0  0  0  0  0  0  0  0  0  0  0  0
   -2.7405   -1.1817   -1.0229 H   0  0  0  0  0  0  0  0  0  0  0  0
   -3.4573   -2.2350    1.1044 H   0  0  0  0  0  0  0  0  0  0  0  0
   -3.5469   -0.6301    1.8688 H   0  0  0  0  0  0  0  0  0  0  0  0
   -4.6585   -1.0476    0.5428 H   0  0  0  0  0  0  0  0  0  0  0  0
    2.7405   -1.1817   -1.0229 H   0  0  0  0  0  0  0  0  0  0  0  0
    2.8300    0.4232   -0.2585 H   0  0  0  0  0  0  0  0  0  0  0  0
    4.6585   -1.0476    0.5428 H   0  0  0  0  0  0  0  0  0  0  0  0
    3.5469   -0.6301    1.8688 H   0  0  0  0  0  0  0  0  0  0  0  0
    3.4573   -2.2350    1.1044 H   0  0  0  0  0  0  0  0  0  0  0  0
  1  2  2  0  0  0  0
  1  3  1  0  0  0  0
  3  4  1  0  0  0  0
  4  5  1  0  0  0  0
  1  6  1  0  0  0  0
  6  7  1  0  0  0  0
  7  8  1  0  0  0  0
  1  9  1  0  0  0  0
  9 10  1  0  0  0  0
 10 11  1  0  0  0  0
  4 12  1  0  0  0  0
  4 13  1  0  0  0  0
  5 14  1  0  0  0  0
  5 15  1  0  0  0  0
  5 16  1  0  0  0  0
  7 17  1  0  0  0  0
  7 18  1  0  0  0  0
  8 19  1  0  0  0  0
  8 20  1  0  0  0  0
  8 21  1  0  0  0  0
 10 22  1  0  0  0  0
 10 23  1  0  0  0  0
 11 24  1  0  0  0  0
 11 25  1  0  0  0  0
 11 26  1  0  0  0  0
M  END
$$$$
