C15H15ClF3N3O
APtclcactv12211717073D 0   0.00000     0.00000
 
 38 39  0  0  0  0  0  0  0  0999 V2000
    2.6818   -1.2291    0.0626 C   0  0  0  0  0  0  0  0  0  0  0  0
    1.2740    0.8221    1.2916 C   0  0  0  0  0  0  0  0  0  0  0  0
    2.6416    0.7324    1.4473 C   0  0  0  0  0  0  0  0  0  0  0  0
    0.6768    2.0360   -1.1449 C   0  0  0  0  0  0  0  0  0  0  0  0
   -0.7289    3.4518   -0.2216 C   0  0  0  0  0  0  0  0  0  0  0  0
    1.1210    3.2931   -1.3257 C   0  0  0  0  0  0  0  0  0  0  0  0
   -2.8009    1.2208   -0.0561 C   0  0  0  0  0  0  0  0  0  0  0  0
   -4.8304    0.0396    0.4248 C   0  0  0  0  0  0  0  0  0  0  0  0
   -5.3622   -1.3032    0.9295 C   0  0  0  0  0  0  0  0  0  0  0  0
   -6.8917   -1.2696    0.9534 C   0  0  0  0  0  0  0  0  0  0  0  0
    1.3140   -1.1496   -0.1004 C   0  0  0  0  0  0  0  0  0  0  0  0
    0.5996   -0.1209    0.5145 C   0  0  0  0  0  0  0  0  0  0  0  0
    3.3453   -0.2908    0.8345 C   0  0  0  0  0  0  0  0  0  0  0  0
   -1.3010    1.0761   -0.0386 C   0  0  0  0  0  0  0  0  0  0  0  0
   -3.4019    0.0082    0.4025 O   0  0  0  0  0  0  0  0  0  0  0  0
    5.0663   -0.3976    1.0355 Cl  0  0  0  0  0  0  0  0  0  0  0  0
    1.5158   -3.0935   -1.4473 F   0  0  0  0  0  0  0  0  0  0  0  0
   -0.3512   -2.8401   -0.1552 F   0  0  0  0  0  0  0  0  0  0  0  0
   -0.0540   -1.5293   -2.0025 F   0  0  0  0  0  0  0  0  0  0  0  0
   -0.7605   -0.0371    0.3564 N   0  0  0  0  0  0  0  0  0  0  0  0
    0.2462    4.1351   -0.7536 N   0  0  0  0  0  0  0  0  0  0  0  0
    0.5932   -2.1714   -0.9414 C   0  0  0  0  0  0  0  0  0  0  0  0
   -0.5005    2.1277   -0.4429 N   0  0  0  0  0  0  0  0  0  0  0  0
    3.2353   -2.0275   -0.4093 H   0  0  0  0  0  0  0  0  0  0  0  0
    0.7262    1.6206    1.7697 H   0  0  0  0  0  0  0  0  0  0  0  0
    3.1646    1.4617    2.0480 H   0  0  0  0  0  0  0  0  0  0  0  0
   -3.0943    2.0418    0.5981 H   0  0  0  0  0  0  0  0  0  0  0  0
   -3.1340    1.4296   -1.0728 H   0  0  0  0  0  0  0  0  0  0  0  0
    1.1520    1.1295   -1.4895 H   0  0  0  0  0  0  0  0  0  0  0  0
   -1.5753    3.8663    0.3058 H   0  0  0  0  0  0  0  0  0  0  0  0
    2.0263    3.5761   -1.8421 H   0  0  0  0  0  0  0  0  0  0  0  0
   -5.2055    0.2239   -0.5818 H   0  0  0  0  0  0  0  0  0  0  0  0
   -5.1659    0.8361    1.0891 H   0  0  0  0  0  0  0  0  0  0  0  0
   -5.0267   -2.0997    0.2653 H   0  0  0  0  0  0  0  0  0  0  0  0
   -4.9871   -1.4875    1.9362 H   0  0  0  0  0  0  0  0  0  0  0  0
   -7.2706   -2.2263    1.3130 H   0  0  0  0  0  0  0  0  0  0  0  0
   -7.2272   -0.4731    1.6177 H   0  0  0  0  0  0  0  0  0  0  0  0
   -7.2668   -1.0853   -0.0532 H   0  0  0  0  0  0  0  0  0  0  0  0
 11 12  2  0  0  0  0
  1 11  1  0  0  0  0
 11 22  1  0  0  0  0
 12 20  1  0  0  0  0
  2 12  1  0  0  0  0
  1 13  2  0  0  0  0
 17 22  1  0  0  0  0
 18 22  1  0  0  0  0
 19 22  1  0  0  0  0
 14 20  2  0  0  0  0
  2  3  2  0  0  0  0
 13 16  1  0  0  0  0
 14 23  1  0  0  0  0
  7 14  1  0  0  0  0
  4 23  1  0  0  0  0
  5 23  1  0  0  0  0
  7 15  1  0  0  0  0
  4  6  2  0  0  0  0
  5 21  2  0  0  0  0
  8 15  1  0  0  0  0
  8  9  1  0  0  0  0
  9 10  1  0  0  0  0
  3 13  1  0  0  0  0
  6 21  1  0  0  0  0
  1 24  1  0  0  0  0
  2 25  1  0  0  0  0
  3 26  1  0  0  0  0
  7 27  1  0  0  0  0
  7 28  1  0  0  0  0
  4 29  1  0  0  0  0
  5 30  1  0  0  0  0
  6 31  1  0  0  0  0
  8 32  1  0  0  0  0
  8 33  1  0  0  0  0
  9 34  1  0  0  0  0
  9 35  1  0  0  0  0
 10 36  1  0  0  0  0
 10 37  1  0  0  0  0
 10 38  1  0  0  0  0
M  END
$$$$
