C6H11N3O4
APtclcactv12211716553D 0   0.00000     0.00000
 
 24 23  0  0  0  0  0  0  0  0999 V2000
   -4.4039   -0.6951    0.0095 C   0  0  0  0  0  0  0  0  0  0  0  0
   -0.7586    0.4739    0.0078 C   0  0  0  0  0  0  0  0  0  0  0  0
    2.8975   -0.6609   -0.0046 C   0  0  0  0  0  0  0  0  0  0  0  0
   -5.6033    0.7894   -0.7626 H   0  0  0  0  0  0  0  0  0  0  0  0
   -6.4438   -0.4169    0.0148 H   0  0  0  0  0  0  0  0  0  0  0  0
   -1.8573   -1.3430    0.0015 H   0  0  0  0  0  0  0  0  0  0  0  0
    1.7818    1.1456    0.0060 H   0  0  0  0  0  0  0  0  0  0  0  0
   -3.2944    1.3878    0.0170 O   0  0  0  0  0  0  0  0  0  0  0  0
    4.0074    1.4175    0.0029 O   0  0  0  0  0  0  0  0  0  0  0  0
    0.3703   -1.5986   -0.0040 O   0  0  0  0  0  0  0  0  0  0  0  0
    5.3456   -0.3410   -0.0078 O   0  0  0  0  0  0  0  0  0  0  0  0
   -3.1775    0.1807    0.0112 C   0  0  0  0  0  0  0  0  0  0  0  0
    0.4759   -0.3904    0.0014 C   0  0  0  0  0  0  0  0  0  0  0  0
    4.1238    0.2149   -0.0029 C   0  0  0  0  0  0  0  0  0  0  0  0
    6.1020    0.2614   -0.0065 H   0  0  0  0  0  0  0  0  0  0  0  0
   -5.6073    0.1474    0.0158 N   0  0  0  0  0  0  0  0  0  0  0  0
   -1.9508   -0.3775    0.0062 N   0  0  0  0  0  0  0  0  0  0  0  0
    1.6974    0.1793    0.0017 N   0  0  0  0  0  0  0  0  0  0  0  0
   -4.4027   -1.3203   -0.8834 H   0  0  0  0  0  0  0  0  0  0  0  0
   -4.3992   -1.3286    0.8966 H   0  0  0  0  0  0  0  0  0  0  0  0
   -0.7598    1.0991    0.9008 H   0  0  0  0  0  0  0  0  0  0  0  0
   -0.7633    1.1073   -0.8792 H   0  0  0  0  0  0  0  0  0  0  0  0
    2.8987   -1.2861   -0.8975 H   0  0  0  0  0  0  0  0  0  0  0  0
    2.9021   -1.2944    0.8825 H   0  0  0  0  0  0  0  0  0  0  0  0
  1 16  1  0  0  0  0
  1 12  1  0  0  0  0
 12 17  1  0  0  0  0
  8 12  2  0  0  0  0
  2 17  1  0  0  0  0
  2 13  1  0  0  0  0
 13 18  1  0  0  0  0
 10 13  2  0  0  0  0
 11 14  1  0  0  0  0
  3 14  1  0  0  0  0
  9 14  2  0  0  0  0
  3 18  1  0  0  0  0
  4 16  1  0  0  0  0
  5 16  1  0  0  0  0
  1 19  1  0  0  0  0
  1 20  1  0  0  0  0
  6 17  1  0  0  0  0
  2 21  1  0  0  0  0
  2 22  1  0  0  0  0
 11 15  1  0  0  0  0
  3 23  1  0  0  0  0
  3 24  1  0  0  0  0
  7 18  1  0  0  0  0
M  END
$$$$
