C14H18N4O3
APtclcactv12211717033D 0   0.00000     0.00000
 
 39 40  0  0  0  0  0  0  0  0999 V2000
    0.9190    1.2672    0.7147 C   0  0  0  0  0  0  0  0  0  0  0  0
    0.8191   -1.1258    0.6374 C   0  0  0  0  0  0  0  0  0  0  0  0
   -2.7363    1.4094    0.5626 C   0  0  0  0  0  0  0  0  0  0  0  0
   -0.9993    0.1114    1.8298 C   0  0  0  0  0  0  0  0  0  0  0  0
    2.1092    3.6205    0.1170 C   0  0  0  0  0  0  0  0  0  0  0  0
    1.8118   -3.5267   -0.1122 C   0  0  0  0  0  0  0  0  0  0  0  0
    5.0180   -0.0679   -0.3932 C   0  0  0  0  0  0  0  0  0  0  0  0
   -1.4223   -2.2806    1.2196 H   0  0  0  0  0  0  0  0  0  0  0  0
   -2.5571   -3.0070    0.2160 H   0  0  0  0  0  0  0  0  0  0  0  0
   -5.7041   -0.3949   -2.0503 H   0  0  0  0  0  0  0  0  0  0  0  0
   -5.7196    1.2761   -1.8765 H   0  0  0  0  0  0  0  0  0  0  0  0
    0.2826    0.0835    1.0380 C   0  0  0  0  0  0  0  0  0  0  0  0
    2.0987    1.2459   -0.0138 C   0  0  0  0  0  0  0  0  0  0  0  0
    1.9982   -1.1558   -0.0918 C   0  0  0  0  0  0  0  0  0  0  0  0
   -2.1712    0.1911    0.8858 C   0  0  0  0  0  0  0  0  0  0  0  0
    2.6411    0.0321   -0.4189 C   0  0  0  0  0  0  0  0  0  0  0  0
   -2.7109   -0.9650    0.3183 C   0  0  0  0  0  0  0  0  0  0  0  0
   -4.2579    0.3325   -0.7940 C   0  0  0  0  0  0  0  0  0  0  0  0
    2.7238    2.4110   -0.3319 O   0  0  0  0  0  0  0  0  0  0  0  0
    2.5255   -2.3461   -0.4851 O   0  0  0  0  0  0  0  0  0  0  0  0
    3.7985    0.0069   -1.1344 O   0  0  0  0  0  0  0  0  0  0  0  0
   -2.1767   -2.2085    0.6142 N   0  0  0  0  0  0  0  0  0  0  0  0
   -5.3346    0.4126   -1.6599 N   0  0  0  0  0  0  0  0  0  0  0  0
   -3.7450   -0.8550   -0.5097 N   0  0  0  0  0  0  0  0  0  0  0  0
   -3.7661    1.4457   -0.2702 N   0  0  0  0  0  0  0  0  0  0  0  0
    0.4945    2.2102    1.0260 H   0  0  0  0  0  0  0  0  0  0  0  0
    0.3193   -2.0485    0.8926 H   0  0  0  0  0  0  0  0  0  0  0  0
   -1.0762   -0.7960    2.4288 H   0  0  0  0  0  0  0  0  0  0  0  0
   -1.0018    0.9815    2.4865 H   0  0  0  0  0  0  0  0  0  0  0  0
   -2.3457    2.3221    0.9876 H   0  0  0  0  0  0  0  0  0  0  0  0
    2.7082    4.4730   -0.2031 H   0  0  0  0  0  0  0  0  0  0  0  0
    1.1087    3.6992   -0.3085 H   0  0  0  0  0  0  0  0  0  0  0  0
    2.0417    3.6118    1.2048 H   0  0  0  0  0  0  0  0  0  0  0  0
    2.3390   -4.4037   -0.4876 H   0  0  0  0  0  0  0  0  0  0  0  0
    1.7428   -3.5816    0.9742 H   0  0  0  0  0  0  0  0  0  0  0  0
    0.8093   -3.4951   -0.5389 H   0  0  0  0  0  0  0  0  0  0  0  0
    5.0981    0.7988    0.2630 H   0  0  0  0  0  0  0  0  0  0  0  0
    5.0239   -0.9787    0.2056 H   0  0  0  0  0  0  0  0  0  0  0  0
    5.8621   -0.0809   -1.0827 H   0  0  0  0  0  0  0  0  0  0  0  0
  1 12  2  0  0  0  0
  2 12  1  0  0  0  0
  4 12  1  0  0  0  0
  1 13  1  0  0  0  0
  2 14  2  0  0  0  0
  4 15  1  0  0  0  0
 13 16  2  0  0  0  0
 13 19  1  0  0  0  0
 14 20  1  0  0  0  0
 15 17  2  0  0  0  0
  3 15  1  0  0  0  0
 16 21  1  0  0  0  0
  5 19  1  0  0  0  0
  6 20  1  0  0  0  0
 17 24  1  0  0  0  0
 17 22  1  0  0  0  0
  3 25  2  0  0  0  0
  7 21  1  0  0  0  0
 18 24  2  0  0  0  0
 18 23  1  0  0  0  0
 14 16  1  0  0  0  0
 18 25  1  0  0  0  0
  1 26  1  0  0  0  0
  2 27  1  0  0  0  0
  4 28  1  0  0  0  0
  4 29  1  0  0  0  0
  3 30  1  0  0  0  0
  5 31  1  0  0  0  0
  5 32  1  0  0  0  0
  5 33  1  0  0  0  0
  6 34  1  0  0  0  0
  6 35  1  0  0  0  0
  6 36  1  0  0  0  0
  8 22  1  0  0  0  0
  9 22  1  0  0  0  0
  7 37  1  0  0  0  0
  7 38  1  0  0  0  0
  7 39  1  0  0  0  0
 10 23  1  0  0  0  0
 11 23  1  0  0  0  0
M  END
$$$$
