C6H9NO3
APtclcactv12211716553D 0   0.00000     0.00000
 
 19 19  0  0  0  0  0  0  0  0999 V2000
    2.0173   -0.3891   -1.2581 C   0  0  0  0  0  0  0  0  0  0  0  0
    2.0205   -0.3834    1.2562 C   0  0  0  0  0  0  0  0  0  0  0  0
   -2.1551    1.3664   -0.0015 C   0  0  0  0  0  0  0  0  0  0  0  0
    0.6763    2.0709    0.0008 O   0  0  0  0  0  0  0  0  0  0  0  0
   -2.0814   -1.4799    0.0017 O   0  0  0  0  0  0  0  0  0  0  0  0
    0.2930    0.9208   -0.0017 C   0  0  0  0  0  0  0  0  0  0  0  0
   -1.0429   -0.8500    0.0013 C   0  0  0  0  0  0  0  0  0  0  0  0
    0.1745   -1.4171    0.0019 O   0  0  0  0  0  0  0  0  0  0  0  0
    1.1487   -0.3302    0.0000 C   0  0  0  0  0  0  0  0  0  0  0  0
   -0.9834    0.4870   -0.0008 N   0  0  0  0  0  0  0  0  0  0  0  0
    2.6684    0.4844   -1.2913 H   0  0  0  0  0  0  0  0  0  0  0  0
    2.6243   -1.2942   -1.2385 H   0  0  0  0  0  0  0  0  0  0  0  0
    1.3779   -0.3994   -2.1409 H   0  0  0  0  0  0  0  0  0  0  0  0
    1.3834   -0.3897    2.1406 H   0  0  0  0  0  0  0  0  0  0  0  0
    2.6275   -1.2886    1.2392 H   0  0  0  0  0  0  0  0  0  0  0  0
    2.6717    0.4903    1.2838 H   0  0  0  0  0  0  0  0  0  0  0  0
   -2.4460    1.5833   -1.0293 H   0  0  0  0  0  0  0  0  0  0  0  0
   -2.9797    0.8733    0.5132 H   0  0  0  0  0  0  0  0  0  0  0  0
   -1.9113    2.2969    0.5111 H   0  0  0  0  0  0  0  0  0  0  0  0
  6  9  1  0  0  0  0
  1  9  1  0  0  0  0
  2  9  1  0  0  0  0
  8  9  1  0  0  0  0
  6 10  1  0  0  0  0
  4  6  2  0  0  0  0
  7  8  1  0  0  0  0
  7 10  1  0  0  0  0
  3 10  1  0  0  0  0
  5  7  2  0  0  0  0
  1 11  1  0  0  0  0
  1 12  1  0  0  0  0
  1 13  1  0  0  0  0
  2 14  1  0  0  0  0
  2 15  1  0  0  0  0
  2 16  1  0  0  0  0
  3 17  1  0  0  0  0
  3 18  1  0  0  0  0
  3 19  1  0  0  0  0
M  END
$$$$
