C3H9O4P
APtclcactv12211716363D 0   0.00000     0.00000
 
 17 16  0  0  0  0  0  0  0  0999 V2000
   -0.0000   -0.2614   -0.1104 P   0  0  0  0  0  0  0  0  0  0  0  0
   -0.0000   -1.2494   -1.2124 O   0  0  0  0  0  0  0  0  0  0  0  0
    0.0000    1.2271   -0.7241 O   0  0  0  0  0  0  0  0  0  0  0  0
    0.0000    2.4034    0.0872 C   0  0  0  0  0  0  0  0  0  0  0  0
   -1.3146   -0.4682    0.7958 O   0  0  0  0  0  0  0  0  0  0  0  0
   -2.6393   -0.4531    0.2603 C   0  0  0  0  0  0  0  0  0  0  0  0
    1.3146   -0.4682    0.7958 O   0  0  0  0  0  0  0  0  0  0  0  0
    2.6393   -0.4531    0.2603 C   0  0  0  0  0  0  0  0  0  0  0  0
    0.0000    3.2860   -0.5525 H   0  0  0  0  0  0  0  0  0  0  0  0
   -0.8900    2.4108    0.7165 H   0  0  0  0  0  0  0  0  0  0  0  0
    0.8900    2.4108    0.7165 H   0  0  0  0  0  0  0  0  0  0  0  0
   -2.8300    0.5114   -0.2102 H   0  0  0  0  0  0  0  0  0  0  0  0
   -2.7405   -1.2455   -0.4814 H   0  0  0  0  0  0  0  0  0  0  0  0
   -3.3580   -0.6138    1.0639 H   0  0  0  0  0  0  0  0  0  0  0  0
    2.7405   -1.2455   -0.4813 H   0  0  0  0  0  0  0  0  0  0  0  0
    2.8300    0.5114   -0.2102 H   0  0  0  0  0  0  0  0  0  0  0  0
    3.3580   -0.6138    1.0639 H   0  0  0  0  0  0  0  0  0  0  0  0
  1  2  2  0  0  0  0
  1  3  1  0  0  0  0
  3  4  1  0  0  0  0
  1  5  1  0  0  0  0
  5  6  1  0  0  0  0
  1  7  1  0  0  0  0
  7  8  1  0  0  0  0
  4  9  1  0  0  0  0
  4 10  1  0  0  0  0
  4 11  1  0  0  0  0
  6 12  1  0  0  0  0
  6 13  1  0  0  0  0
  6 14  1  0  0  0  0
  8 15  1  0  0  0  0
  8 16  1  0  0  0  0
  8 17  1  0  0  0  0
M  END
$$$$
