C9H6O6
APtclcactv12151716423D 0   0.00000     0.00000
 
 21 21  0  0  0  0  0  0  0  0999 V2000
   -2.0144    2.0476    0.0010 C   0  0  0  0  0  0  0  0  0  0  0  0
   -0.9679    1.0045    0.0004 C   0  0  0  0  0  0  0  0  0  0  0  0
    0.3786    1.3677    0.0005 C   0  0  0  0  0  0  0  0  0  0  0  0
    1.3664    0.3831   -0.0001 C   0  0  0  0  0  0  0  0  0  0  0  0
    2.7930    0.7679   -0.0004 C   0  0  0  0  0  0  0  0  0  0  0  0
    3.1055    1.9417   -0.0001 O   0  0  0  0  0  0  0  0  0  0  0  0
    3.7471   -0.1830   -0.0011 O   0  0  0  0  0  0  0  0  0  0  0  0
    1.0077   -0.9646   -0.0000 C   0  0  0  0  0  0  0  0  0  0  0  0
   -0.3389   -1.3278    0.0003 C   0  0  0  0  0  0  0  0  0  0  0  0
   -0.7189   -2.7556   -0.0002 C   0  0  0  0  0  0  0  0  0  0  0  0
    0.1414   -3.6131   -0.0008 O   0  0  0  0  0  0  0  0  0  0  0  0
   -2.0195   -3.1064    0.0001 O   0  0  0  0  0  0  0  0  0  0  0  0
   -1.3267   -0.3432    0.0053 C   0  0  0  0  0  0  0  0  0  0  0  0
   -1.7020    3.2214    0.0017 O   0  0  0  0  0  0  0  0  0  0  0  0
   -3.3150    1.6968   -0.0048 O   0  0  0  0  0  0  0  0  0  0  0  0
    0.6564    2.4113    0.0008 H   0  0  0  0  0  0  0  0  0  0  0  0
    4.6663    0.1173   -0.0013 H   0  0  0  0  0  0  0  0  0  0  0  0
    1.7726   -1.7270   -0.0005 H   0  0  0  0  0  0  0  0  0  0  0  0
   -2.2190   -4.0526   -0.0002 H   0  0  0  0  0  0  0  0  0  0  0  0
   -2.3694   -0.6245    0.0055 H   0  0  0  0  0  0  0  0  0  0  0  0
   -3.9632    2.4144   -0.0041 H   0  0  0  0  0  0  0  0  0  0  0  0
  1  2  1  0  0  0  0
  2  3  2  0  0  0  0
  3  4  1  0  0  0  0
  4  5  1  0  0  0  0
  5  6  2  0  0  0  0
  5  7  1  0  0  0  0
  4  8  2  0  0  0  0
  8  9  1  0  0  0  0
  9 10  1  0  0  0  0
 10 11  2  0  0  0  0
 10 12  1  0  0  0  0
  9 13  2  0  0  0  0
  2 13  1  0  0  0  0
  1 14  2  0  0  0  0
  1 15  1  0  0  0  0
  3 16  1  0  0  0  0
  7 17  1  0  0  0  0
  8 18  1  0  0  0  0
 12 19  1  0  0  0  0
 13 20  1  0  0  0  0
 15 21  1  0  0  0  0
M  END
$$$$
