C8H18O4S2
APtclcactv12151716403D 0   0.00000     0.00000
 
 32 31  0  0  0  0  0  0  0  0999 V2000
    0.1022    1.6431    0.9646 C   0  0  0  0  0  0  0  0  0  0  0  0
   -2.8310    0.0578    0.8864 C   0  0  0  0  0  0  0  0  0  0  0  0
    2.7867    0.3689    0.7129 C   0  0  0  0  0  0  0  0  0  0  0  0
   -0.1391   -0.6184    1.9990 C   0  0  0  0  0  0  0  0  0  0  0  0
    0.3908    2.3894   -0.3395 C   0  0  0  0  0  0  0  0  0  0  0  0
   -4.1834   -0.1637    0.2060 C   0  0  0  0  0  0  0  0  0  0  0  0
    4.1329   -0.0030    0.0881 C   0  0  0  0  0  0  0  0  0  0  0  0
   -1.4899   -1.5133   -0.7523 O   0  0  0  0  0  0  0  0  0  0  0  0
   -1.6049    0.8733   -1.3009 O   0  0  0  0  0  0  0  0  0  0  0  0
    1.4197    0.1303   -1.5292 O   0  0  0  0  0  0  0  0  0  0  0  0
    1.5578   -1.8307   -0.0643 O   0  0  0  0  0  0  0  0  0  0  0  0
   -0.0221    0.1453    0.6783 C   0  0  0  0  0  0  0  0  0  0  0  0
   -1.5008   -0.1572   -0.3280 S   0  0  0  0  0  0  0  0  0  0  0  0
    1.4476   -0.4226   -0.2205 S   0  0  0  0  0  0  0  0  0  0  0  0
    0.9176    1.8121    1.6680 H   0  0  0  0  0  0  0  0  0  0  0  0
   -0.8301    2.0096    1.3943 H   0  0  0  0  0  0  0  0  0  0  0  0
   -0.2277   -1.6854    1.7950 H   0  0  0  0  0  0  0  0  0  0  0  0
    0.7494   -0.4366    2.6037 H   0  0  0  0  0  0  0  0  0  0  0  0
   -1.0222   -0.2771    2.5390 H   0  0  0  0  0  0  0  0  0  0  0  0
   -2.7907    1.0678    1.2944 H   0  0  0  0  0  0  0  0  0  0  0  0
   -2.7072   -0.6651    1.6927 H   0  0  0  0  0  0  0  0  0  0  0  0
    2.7596    0.0273    1.7476 H   0  0  0  0  0  0  0  0  0  0  0  0
    2.6593    1.4511    0.6840 H   0  0  0  0  0  0  0  0  0  0  0  0
    1.2685    1.9565   -0.8192 H   0  0  0  0  0  0  0  0  0  0  0  0
   -0.4676    2.3021   -1.0056 H   0  0  0  0  0  0  0  0  0  0  0  0
    0.5769    3.4413   -0.1226 H   0  0  0  0  0  0  0  0  0  0  0  0
   -4.2237   -1.1736   -0.2021 H   0  0  0  0  0  0  0  0  0  0  0  0
   -4.9827   -0.0345    0.9357 H   0  0  0  0  0  0  0  0  0  0  0  0
   -4.3072    0.5592   -0.6004 H   0  0  0  0  0  0  0  0  0  0  0  0
    4.2602   -1.0851    0.1169 H   0  0  0  0  0  0  0  0  0  0  0  0
    4.1599    0.3386   -0.9467 H   0  0  0  0  0  0  0  0  0  0  0  0
    4.9375    0.4726    0.6489 H   0  0  0  0  0  0  0  0  0  0  0  0
 12 13  1  0  0  0  0
 12 14  1  0  0  0  0
  1 12  1  0  0  0  0
  4 12  1  0  0  0  0
  2 13  1  0  0  0  0
  8 13  2  0  0  0  0
  9 13  2  0  0  0  0
  3 14  1  0  0  0  0
 10 14  2  0  0  0  0
 11 14  2  0  0  0  0
  1  5  1  0  0  0  0
  2  6  1  0  0  0  0
  3  7  1  0  0  0  0
  1 15  1  0  0  0  0
  1 16  1  0  0  0  0
  4 17  1  0  0  0  0
  4 18  1  0  0  0  0
  4 19  1  0  0  0  0
  2 20  1  0  0  0  0
  2 21  1  0  0  0  0
  3 22  1  0  0  0  0
  3 23  1  0  0  0  0
  5 24  1  0  0  0  0
  5 25  1  0  0  0  0
  5 26  1  0  0  0  0
  6 27  1  0  0  0  0
  6 28  1  0  0  0  0
  6 29  1  0  0  0  0
  7 30  1  0  0  0  0
  7 31  1  0  0  0  0
  7 32  1  0  0  0  0
M  END
$$$$
