C12H20O6
APtclcactv12141705293D 0   0.00000     0.00000
 
 38 37  0  0  0  0  0  0  0  0999 V2000
    1.5466   -1.0007    0.1508 C   0  0  0  0  0  0  0  0  0  0  0  0
   -0.9433   -1.2067    0.1583 C   0  0  0  0  0  0  0  0  0  0  0  0
   -0.6951    3.2387    0.8648 C   0  0  0  0  0  0  0  0  0  0  0  0
    5.1042    0.1416   -0.4680 C   0  0  0  0  0  0  0  0  0  0  0  0
   -4.6439   -0.6649   -0.4386 C   0  0  0  0  0  0  0  0  0  0  0  0
   -1.5160    4.2338    0.0422 C   0  0  0  0  0  0  0  0  0  0  0  0
    6.3751   -0.6352   -0.1181 C   0  0  0  0  0  0  0  0  0  0  0  0
   -5.7677   -1.6398   -0.0815 C   0  0  0  0  0  0  0  0  0  0  0  0
   -1.0537    1.8391   -0.9964 O   0  0  0  0  0  0  0  0  0  0  0  0
    4.0373   -1.7429    0.4606 O   0  0  0  0  0  0  0  0  0  0  0  0
   -3.2763   -2.3480    0.4826 O   0  0  0  0  0  0  0  0  0  0  0  0
   -0.5512    1.9501    0.0967 C   0  0  0  0  0  0  0  0  0  0  0  0
    3.8962   -0.6609   -0.0581 C   0  0  0  0  0  0  0  0  0  0  0  0
   -3.3180   -1.2577   -0.0364 C   0  0  0  0  0  0  0  0  0  0  0  0
    0.1352    0.9257    0.6270 O   0  0  0  0  0  0  0  0  0  0  0  0
    2.6635   -0.1734   -0.2693 O   0  0  0  0  0  0  0  0  0  0  0  0
   -2.1835   -0.5744   -0.2547 O   0  0  0  0  0  0  0  0  0  0  0  0
    0.2329   -0.2846   -0.1691 C   0  0  0  0  0  0  0  0  0  0  0  0
    0.2083   -0.0262   -1.2277 H   0  0  0  0  0  0  0  0  0  0  0  0
    1.5800   -1.9526   -0.3793 H   0  0  0  0  0  0  0  0  0  0  0  0
    1.6108   -1.1800    1.2240 H   0  0  0  0  0  0  0  0  0  0  0  0
   -0.9707   -1.3936    1.2318 H   0  0  0  0  0  0  0  0  0  0  0  0
   -0.8230   -2.1514   -0.3720 H   0  0  0  0  0  0  0  0  0  0  0  0
    0.2922    3.6568    1.0612 H   0  0  0  0  0  0  0  0  0  0  0  0
   -1.2016    3.0436    1.8101 H   0  0  0  0  0  0  0  0  0  0  0  0
   -1.6200    5.1658    0.5978 H   0  0  0  0  0  0  0  0  0  0  0  0
   -1.0095    4.4289   -0.9030 H   0  0  0  0  0  0  0  0  0  0  0  0
   -2.5033    3.8157   -0.1541 H   0  0  0  0  0  0  0  0  0  0  0  0
    6.3755   -1.5883   -0.6469 H   0  0  0  0  0  0  0  0  0  0  0  0
    7.2488   -0.0548   -0.4146 H   0  0  0  0  0  0  0  0  0  0  0  0
    6.4063   -0.8158    0.9564 H   0  0  0  0  0  0  0  0  0  0  0  0
    5.1037    1.0947    0.0608 H   0  0  0  0  0  0  0  0  0  0  0  0
    5.0729    0.3221   -1.5425 H   0  0  0  0  0  0  0  0  0  0  0  0
   -5.7624   -1.8225    0.9931 H   0  0  0  0  0  0  0  0  0  0  0  0
   -6.7267   -1.2110   -0.3724 H   0  0  0  0  0  0  0  0  0  0  0  0
   -5.6147   -2.5803   -0.6108 H   0  0  0  0  0  0  0  0  0  0  0  0
   -4.6492   -0.4822   -1.5131 H   0  0  0  0  0  0  0  0  0  0  0  0
   -4.7969    0.2756    0.0907 H   0  0  0  0  0  0  0  0  0  0  0  0
 15 18  1  0  0  0  0
  1 18  1  0  0  0  0
  2 18  1  0  0  0  0
 12 15  1  0  0  0  0
  1 16  1  0  0  0  0
  2 17  1  0  0  0  0
  3 12  1  0  0  0  0
  9 12  2  0  0  0  0
  3  6  1  0  0  0  0
  4  7  1  0  0  0  0
  4 13  1  0  0  0  0
 13 16  1  0  0  0  0
 10 13  2  0  0  0  0
  5  8  1  0  0  0  0
  5 14  1  0  0  0  0
 14 17  1  0  0  0  0
 11 14  2  0  0  0  0
 18 19  1  0  0  0  0
  1 20  1  0  0  0  0
  1 21  1  0  0  0  0
  2 22  1  0  0  0  0
  2 23  1  0  0  0  0
  3 24  1  0  0  0  0
  3 25  1  0  0  0  0
  6 26  1  0  0  0  0
  6 27  1  0  0  0  0
  6 28  1  0  0  0  0
  7 29  1  0  0  0  0
  7 30  1  0  0  0  0
  7 31  1  0  0  0  0
  4 32  1  0  0  0  0
  4 33  1  0  0  0  0
  8 34  1  0  0  0  0
  8 35  1  0  0  0  0
  8 36  1  0  0  0  0
  5 37  1  0  0  0  0
  5 38  1  0  0  0  0
M  END
$$$$
