C6H12Cl3O4P
APtclcactv12211716573D 0   0.00000     0.00000
 
 26 25  0  0  0  0  0  0  0  0999 V2000
   -0.4006   -0.0750   -0.7630 P   0  0  0  0  0  0  0  0  0  0  0  0
   -0.7231   -0.1441   -2.2058 O   0  0  0  0  0  0  0  0  0  0  0  0
    0.3607    1.3084   -0.4489 O   0  0  0  0  0  0  0  0  0  0  0  0
    1.5476    1.7162   -1.1324 C   0  0  0  0  0  0  0  0  0  0  0  0
    2.0064    3.0723   -0.5927 C   0  0  0  0  0  0  0  0  0  0  0  0
    2.4873    2.8995    1.1364 Cl  0  0  0  0  0  0  0  0  0  0  0  0
   -1.7611   -0.1457    0.0950 O   0  0  0  0  0  0  0  0  0  0  0  0
   -2.7126   -1.2032   -0.0404 C   0  0  0  0  0  0  0  0  0  0  0  0
   -3.8819   -0.9629    0.9166 C   0  0  0  0  0  0  0  0  0  0  0  0
   -4.7600    0.5342    0.4285 Cl  0  0  0  0  0  0  0  0  0  0  0  0
    0.5494   -1.3126   -0.3656 O   0  0  0  0  0  0  0  0  0  0  0  0
    1.0356   -1.5259    0.9611 C   0  0  0  0  0  0  0  0  0  0  0  0
    1.9053   -2.7843    0.9894 C   0  0  0  0  0  0  0  0  0  0  0  0
    3.3754   -2.5218   -0.0209 Cl  0  0  0  0  0  0  0  0  0  0  0  0
    2.3320    0.9767   -0.9712 H   0  0  0  0  0  0  0  0  0  0  0  0
    1.3415    1.8007   -2.1994 H   0  0  0  0  0  0  0  0  0  0  0  0
    2.8589    3.4249   -1.1734 H   0  0  0  0  0  0  0  0  0  0  0  0
    1.1903    3.7903   -0.6728 H   0  0  0  0  0  0  0  0  0  0  0  0
   -3.0819   -1.2307   -1.0656 H   0  0  0  0  0  0  0  0  0  0  0  0
   -2.2360   -2.1537    0.1996 H   0  0  0  0  0  0  0  0  0  0  0  0
   -4.5633   -1.8127    0.8782 H   0  0  0  0  0  0  0  0  0  0  0  0
   -3.5025   -0.8469    1.9318 H   0  0  0  0  0  0  0  0  0  0  0  0
    1.6295   -0.6667    1.2729 H   0  0  0  0  0  0  0  0  0  0  0  0
    0.1930   -1.6511    1.6411 H   0  0  0  0  0  0  0  0  0  0  0  0
    2.2032   -2.9970    2.0161 H   0  0  0  0  0  0  0  0  0  0  0  0
    1.3382   -3.6269    0.5937 H   0  0  0  0  0  0  0  0  0  0  0  0
  1  2  2  0  0  0  0
  1  3  1  0  0  0  0
  3  4  1  0  0  0  0
  4  5  1  0  0  0  0
  5  6  1  0  0  0  0
  1  7  1  0  0  0  0
  7  8  1  0  0  0  0
  8  9  1  0  0  0  0
  9 10  1  0  0  0  0
  1 11  1  0  0  0  0
 11 12  1  0  0  0  0
 12 13  1  0  0  0  0
 13 14  1  0  0  0  0
  4 15  1  0  0  0  0
  4 16  1  0  0  0  0
  5 17  1  0  0  0  0
  5 18  1  0  0  0  0
  8 19  1  0  0  0  0
  8 20  1  0  0  0  0
  9 21  1  0  0  0  0
  9 22  1  0  0  0  0
 12 23  1  0  0  0  0
 12 24  1  0  0  0  0
 13 25  1  0  0  0  0
 13 26  1  0  0  0  0
M  END
$$$$
