C11H12N2O2
APtclcactv12211717323D 0   0.00000     0.00000
 
 27 28  0  0  1  0  0  0  0  0999 V2000
    1.3727    1.2078    0.9429 N   0  0  0  0  0  0  0  0  0  0  0  0
    1.9758   -0.0375    0.4497 C   0  0  1  0  0  0  0  0  0  0  0  0
    1.9294   -0.7975    1.2297 H   0  0  0  0  0  0  0  0  0  0  0  0
    1.2084   -0.5231   -0.7817 C   0  0  0  0  0  0  0  0  0  0  0  0
   -0.1979   -0.8912   -0.3843 C   0  0  0  0  0  0  0  0  0  0  0  0
   -0.6423   -2.1168   -0.0643 C   0  0  0  0  0  0  0  0  0  0  0  0
   -1.9747   -2.0646    0.2425 N   0  0  0  0  0  0  0  0  0  0  0  0
   -2.4320   -0.7712    0.1245 C   0  0  0  0  0  0  0  0  0  0  0  0
   -3.6732   -0.1732    0.3148 C   0  0  0  0  0  0  0  0  0  0  0  0
   -3.8180    1.1820    0.1126 C   0  0  0  0  0  0  0  0  0  0  0  0
   -2.7368    1.9588   -0.2797 C   0  0  0  0  0  0  0  0  0  0  0  0
   -1.5084    1.3918   -0.4729 C   0  0  0  0  0  0  0  0  0  0  0  0
   -1.3377    0.0216   -0.2676 C   0  0  0  0  0  0  0  0  0  0  0  0
    3.4145    0.2138    0.0781 C   0  0  0  0  0  0  0  0  0  0  0  0
    3.7943    1.3399   -0.1396 O   0  0  0  0  0  0  0  0  0  0  0  0
    4.2739   -0.8134   -0.0110 O   0  0  0  0  0  0  0  0  0  0  0  0
    1.4035    1.9286    0.2375 H   0  0  0  0  0  0  0  0  0  0  0  0
    0.4274    1.0514    1.2590 H   0  0  0  0  0  0  0  0  0  0  0  0
    1.1790    0.2709   -1.5279 H   0  0  0  0  0  0  0  0  0  0  0  0
    1.7082   -1.3967   -1.2001 H   0  0  0  0  0  0  0  0  0  0  0  0
   -0.0377   -3.0117   -0.0514 H   0  0  0  0  0  0  0  0  0  0  0  0
   -2.5165   -2.8255    0.5041 H   0  0  0  0  0  0  0  0  0  0  0  0
   -4.5207   -0.7692    0.6197 H   0  0  0  0  0  0  0  0  0  0  0  0
   -4.7827    1.6445    0.2606 H   0  0  0  0  0  0  0  0  0  0  0  0
   -2.8673    3.0197   -0.4339 H   0  0  0  0  0  0  0  0  0  0  0  0
   -0.6717    2.0024   -0.7785 H   0  0  0  0  0  0  0  0  0  0  0  0
    5.1863   -0.6028   -0.2524 H   0  0  0  0  0  0  0  0  0  0  0  0
  1  2  1  0  0  0  0
  2  3  1  0  0  0  0
  2  4  1  0  0  0  0
  4  5  1  0  0  0  0
  5  6  2  0  0  0  0
  6  7  1  0  0  0  0
  7  8  1  0  0  0  0
  8  9  2  0  0  0  0
  9 10  1  0  0  0  0
 10 11  2  0  0  0  0
 11 12  1  0  0  0  0
 12 13  2  0  0  0  0
  5 13  1  0  0  0  0
  8 13  1  0  0  0  0
  2 14  1  0  0  0  0
 14 15  2  0  0  0  0
 14 16  1  0  0  0  0
  1 17  1  0  0  0  0
  1 18  1  0  0  0  0
  4 19  1  0  0  0  0
  4 20  1  0  0  0  0
  6 21  1  0  0  0  0
  7 22  1  0  0  0  0
  9 23  1  0  0  0  0
 10 24  1  0  0  0  0
 11 25  1  0  0  0  0
 12 26  1  0  0  0  0
 16 27  1  0  0  0  0
M  END
$$$$
