C18H28O3
APtclcactv12211717183D 0   0.00000     0.00000
 
 49 49  0  0  0  0  0  0  0  0999 V2000
    8.6752   -1.5809   -0.0169 O   0  0  0  0  0  0  0  0  0  0  0  0
    7.4673   -0.9624   -0.0130 C   0  0  0  0  0  0  0  0  0  0  0  0
    7.3997    0.4261   -0.0059 C   0  0  0  0  0  0  0  0  0  0  0  0
    6.1763    1.0576   -0.0015 C   0  0  0  0  0  0  0  0  0  0  0  0
    5.0011    0.3005   -0.0045 C   0  0  0  0  0  0  0  0  0  0  0  0
    3.6885    0.9727   -0.0003 C   0  0  0  0  0  0  0  0  0  0  0  0
    3.6274    2.1862    0.0059 O   0  0  0  0  0  0  0  0  0  0  0  0
    2.5570    0.2411   -0.0032 O   0  0  0  0  0  0  0  0  0  0  0  0
    1.3010    0.9696    0.0013 C   0  0  0  0  0  0  0  0  0  0  0  0
    0.1360   -0.0222   -0.0029 C   0  0  0  0  0  0  0  0  0  0  0  0
   -1.1874    0.7455    0.0019 C   0  0  0  0  0  0  0  0  0  0  0  0
   -2.3524   -0.2464   -0.0024 C   0  0  0  0  0  0  0  0  0  0  0  0
   -3.6758    0.5213    0.0024 C   0  0  0  0  0  0  0  0  0  0  0  0
   -4.8408   -0.4706   -0.0018 C   0  0  0  0  0  0  0  0  0  0  0  0
   -6.1642    0.2971    0.0029 C   0  0  0  0  0  0  0  0  0  0  0  0
   -7.3292   -0.6948   -0.0013 C   0  0  0  0  0  0  0  0  0  0  0  0
   -8.6526    0.0729    0.0035 C   0  0  0  0  0  0  0  0  0  0  0  0
   -9.8176   -0.9189   -0.0007 C   0  0  0  0  0  0  0  0  0  0  0  0
  -11.1410   -0.1513    0.0040 C   0  0  0  0  0  0  0  0  0  0  0  0
    5.0737   -1.0955   -0.0120 C   0  0  0  0  0  0  0  0  0  0  0  0
    6.3012   -1.7190   -0.0217 C   0  0  0  0  0  0  0  0  0  0  0  0
    9.0259   -1.7646    0.8654 H   0  0  0  0  0  0  0  0  0  0  0  0
    8.3081    1.0102   -0.0036 H   0  0  0  0  0  0  0  0  0  0  0  0
    6.1246    2.1363    0.0047 H   0  0  0  0  0  0  0  0  0  0  0  0
    1.2451    1.5919    0.8945 H   0  0  0  0  0  0  0  0  0  0  0  0
    1.2439    1.6009   -0.8855 H   0  0  0  0  0  0  0  0  0  0  0  0
    0.1919   -0.6445   -0.8960 H   0  0  0  0  0  0  0  0  0  0  0  0
    0.1931   -0.6535    0.8839 H   0  0  0  0  0  0  0  0  0  0  0  0
   -1.2433    1.3678    0.8950 H   0  0  0  0  0  0  0  0  0  0  0  0
   -1.2445    1.3767   -0.8849 H   0  0  0  0  0  0  0  0  0  0  0  0
   -2.2965   -0.8687   -0.8955 H   0  0  0  0  0  0  0  0  0  0  0  0
   -2.2953   -0.8776    0.8844 H   0  0  0  0  0  0  0  0  0  0  0  0
   -3.7317    1.1436    0.8955 H   0  0  0  0  0  0  0  0  0  0  0  0
   -3.7329    1.1525   -0.8844 H   0  0  0  0  0  0  0  0  0  0  0  0
   -4.7849   -1.0929   -0.8950 H   0  0  0  0  0  0  0  0  0  0  0  0
   -4.7837   -1.1018    0.8850 H   0  0  0  0  0  0  0  0  0  0  0  0
   -6.2201    0.9194    0.8961 H   0  0  0  0  0  0  0  0  0  0  0  0
   -6.2213    0.9283   -0.8839 H   0  0  0  0  0  0  0  0  0  0  0  0
   -7.2733   -1.3171   -0.8944 H   0  0  0  0  0  0  0  0  0  0  0  0
   -7.2721   -1.3260    0.8855 H   0  0  0  0  0  0  0  0  0  0  0  0
   -8.7085    0.6952    0.8966 H   0  0  0  0  0  0  0  0  0  0  0  0
   -8.7097    0.7042   -0.8833 H   0  0  0  0  0  0  0  0  0  0  0  0
   -9.7617   -1.5412   -0.8939 H   0  0  0  0  0  0  0  0  0  0  0  0
   -9.7605   -1.5502    0.8860 H   0  0  0  0  0  0  0  0  0  0  0  0
  -11.9710   -0.8579    0.0010 H   0  0  0  0  0  0  0  0  0  0  0  0
  -11.1969    0.4710    0.8972 H   0  0  0  0  0  0  0  0  0  0  0  0
  -11.1981    0.4800   -0.8828 H   0  0  0  0  0  0  0  0  0  0  0  0
    4.1682   -1.6841   -0.0144 H   0  0  0  0  0  0  0  0  0  0  0  0
    6.3582   -2.7975   -0.0275 H   0  0  0  0  0  0  0  0  0  0  0  0
  1  2  1  0  0  0  0
  2  3  2  0  0  0  0
  3  4  1  0  0  0  0
  4  5  2  0  0  0  0
  5  6  1  0  0  0  0
  6  7  2  0  0  0  0
  6  8  1  0  0  0  0
  8  9  1  0  0  0  0
  9 10  1  0  0  0  0
 10 11  1  0  0  0  0
 11 12  1  0  0  0  0
 12 13  1  0  0  0  0
 13 14  1  0  0  0  0
 14 15  1  0  0  0  0
 15 16  1  0  0  0  0
 16 17  1  0  0  0  0
 17 18  1  0  0  0  0
 18 19  1  0  0  0  0
  5 20  1  0  0  0  0
 20 21  2  0  0  0  0
  2 21  1  0  0  0  0
  1 22  1  0  0  0  0
  3 23  1  0  0  0  0
  4 24  1  0  0  0  0
  9 25  1  0  0  0  0
  9 26  1  0  0  0  0
 10 27  1  0  0  0  0
 10 28  1  0  0  0  0
 11 29  1  0  0  0  0
 11 30  1  0  0  0  0
 12 31  1  0  0  0  0
 12 32  1  0  0  0  0
 13 33  1  0  0  0  0
 13 34  1  0  0  0  0
 14 35  1  0  0  0  0
 14 36  1  0  0  0  0
 15 37  1  0  0  0  0
 15 38  1  0  0  0  0
 16 39  1  0  0  0  0
 16 40  1  0  0  0  0
 17 41  1  0  0  0  0
 17 42  1  0  0  0  0
 18 43  1  0  0  0  0
 18 44  1  0  0  0  0
 19 45  1  0  0  0  0
 19 46  1  0  0  0  0
 19 47  1  0  0  0  0
 20 48  1  0  0  0  0
 21 49  1  0  0  0  0
M  END
$$$$
