C4H4N2O2
APtclcactv12211716363D 0   0.00000     0.00000
 
 12 12  0  0  0  0  0  0  0  0999 V2000
   -1.1831    0.9949    0.0001 N   0  0  0  0  0  0  0  0  0  0  0  0
   -1.1352   -0.3497    0.0002 C   0  0  0  0  0  0  0  0  0  0  0  0
   -2.1711   -0.9863   -0.0001 O   0  0  0  0  0  0  0  0  0  0  0  0
    0.0432   -1.0000    0.0002 N   0  0  0  0  0  0  0  0  0  0  0  0
    1.2009   -0.3087    0.0001 C   0  0  0  0  0  0  0  0  0  0  0  0
    2.2676   -0.8963   -0.0003 O   0  0  0  0  0  0  0  0  0  0  0  0
    1.1649    1.1065    0.0000 C   0  0  0  0  0  0  0  0  0  0  0  0
   -0.0311    1.7333    0.0001 C   0  0  0  0  0  0  0  0  0  0  0  0
   -2.0423    1.4450   -0.0039 H   0  0  0  0  0  0  0  0  0  0  0  0
    0.0597   -1.9699    0.0006 H   0  0  0  0  0  0  0  0  0  0  0  0
    2.0817    1.6773    0.0003 H   0  0  0  0  0  0  0  0  0  0  0  0
   -0.0782    2.8122   -0.0003 H   0  0  0  0  0  0  0  0  0  0  0  0
  1  2  1  0  0  0  0
  2  3  2  0  0  0  0
  2  4  1  0  0  0  0
  4  5  1  0  0  0  0
  5  6  2  0  0  0  0
  5  7  1  0  0  0  0
  7  8  2  0  0  0  0
  1  8  1  0  0  0  0
  1  9  1  0  0  0  0
  4 10  1  0  0  0  0
  7 11  1  0  0  0  0
  8 12  1  0  0  0  0
M  END
$$$$
