C3H7NO2
APtclcactv12211716353D 0   0.00000     0.00000
 
 13 12  0  0  0  0  0  0  0  0999 V2000
    2.0581   -0.8179   -0.0002 N   0  0  0  0  0  0  0  0  0  0  0  0
    0.9926    0.0075   -0.0001 C   0  0  0  0  0  0  0  0  0  0  0  0
    1.1568    1.2115    0.0001 O   0  0  0  0  0  0  0  0  0  0  0  0
   -0.2536   -0.5020   -0.0001 O   0  0  0  0  0  0  0  0  0  0  0  0
   -1.3534    0.4461    0.0001 C   0  0  0  0  0  0  0  0  0  0  0  0
   -2.6815   -0.3134   -0.0000 C   0  0  0  0  0  0  0  0  0  0  0  0
    2.9559   -0.4508   -0.0002 H   0  0  0  0  0  0  0  0  0  0  0  0
    1.9270   -1.7790    0.0036 H   0  0  0  0  0  0  0  0  0  0  0  0
   -1.2930    1.0724    0.8902 H   0  0  0  0  0  0  0  0  0  0  0  0
   -1.2931    1.0727   -0.8898 H   0  0  0  0  0  0  0  0  0  0  0  0
   -2.7418   -0.9399    0.8899 H   0  0  0  0  0  0  0  0  0  0  0  0
   -3.5071    0.3983    0.0001 H   0  0  0  0  0  0  0  0  0  0  0  0
   -2.7419   -0.9397   -0.8901 H   0  0  0  0  0  0  0  0  0  0  0  0
  1  2  1  0  0  0  0
  2  3  2  0  0  0  0
  2  4  1  0  0  0  0
  4  5  1  0  0  0  0
  5  6  1  0  0  0  0
  1  7  1  0  0  0  0
  1  8  1  0  0  0  0
  5  9  1  0  0  0  0
  5 10  1  0  0  0  0
  6 11  1  0  0  0  0
  6 12  1  0  0  0  0
  6 13  1  0  0  0  0
M  END
$$$$
