C5H4N4O3
APtclcactv12211716413D 0   0.00000     0.00000
 
 16 17  0  0  0  0  0  0  0  0999 V2000
   -2.0308    0.6662   -0.0000 N   0  0  0  0  0  0  0  0  0  0  0  0
   -2.0787   -0.6782    0.0002 C   0  0  0  0  0  0  0  0  0  0  0  0
   -3.1591   -1.2364    0.0003 O   0  0  0  0  0  0  0  0  0  0  0  0
   -0.9535   -1.4174   -0.0003 N   0  0  0  0  0  0  0  0  0  0  0  0
    0.2789   -0.8049   -0.0001 C   0  0  0  0  0  0  0  0  0  0  0  0
    1.5644   -1.2826   -0.0001 N   0  0  0  0  0  0  0  0  0  0  0  0
    2.4153   -0.2388    0.0002 C   0  0  0  0  0  0  0  0  0  0  0  0
    3.6299   -0.3162   -0.0003 O   0  0  0  0  0  0  0  0  0  0  0  0
    1.7030    0.9061    0.0004 N   0  0  0  0  0  0  0  0  0  0  0  0
    0.3474    0.5611    0.0002 C   0  0  0  0  0  0  0  0  0  0  0  0
   -0.8458    1.3113   -0.0002 C   0  0  0  0  0  0  0  0  0  0  0  0
   -0.8076    2.5293   -0.0001 O   0  0  0  0  0  0  0  0  0  0  0  0
   -2.8557    1.1765   -0.0040 H   0  0  0  0  0  0  0  0  0  0  0  0
   -1.0117   -2.3856   -0.0005 H   0  0  0  0  0  0  0  0  0  0  0  0
    1.8190   -2.2186    0.0001 H   0  0  0  0  0  0  0  0  0  0  0  0
    2.0651    1.8060    0.0012 H   0  0  0  0  0  0  0  0  0  0  0  0
  1  2  1  0  0  0  0
  2  3  2  0  0  0  0
  2  4  1  0  0  0  0
  4  5  1  0  0  0  0
  5  6  1  0  0  0  0
  6  7  1  0  0  0  0
  7  8  2  0  0  0  0
  7  9  1  0  0  0  0
  9 10  1  0  0  0  0
  5 10  2  0  0  0  0
 10 11  1  0  0  0  0
  1 11  1  0  0  0  0
 11 12  2  0  0  0  0
  1 13  1  0  0  0  0
  4 14  1  0  0  0  0
  6 15  1  0  0  0  0
  9 16  1  0  0  0  0
M  END
$$$$
