C5H8N4O5
APtclcactv12211716413D 0   0.00000     0.00000
 
 22 21  0  0  0  0  0  0  0  0999 V2000
  -19.7170   -0.5014   -0.5424 O   0  0  0  0  0  0  0  0  0  0  0  0
   -9.7998   -0.2183    0.4395 O   0  0  0  0  0  0  0  0  0  0  0  0
    2.1158    1.9356    0.0353 N   0  0  0  0  0  0  0  0  0  0  0  0
    1.3008    1.0481    0.6335 C   0  0  0  0  0  0  0  0  0  0  0  0
    0.2172    1.4163    1.0446 O   0  0  0  0  0  0  0  0  0  0  0  0
    1.6616   -0.2400    0.7853 N   0  0  0  0  0  0  0  0  0  0  0  0
    2.8838   -0.6766    0.3274 C   0  0  0  0  0  0  0  0  0  0  0  0
    3.5096   -1.8969    0.3401 N   0  0  0  0  0  0  0  0  0  0  0  0
    4.7143   -1.7729   -0.2487 C   0  0  0  0  0  0  0  0  0  0  0  0
    5.5227   -2.6700   -0.4014 O   0  0  0  0  0  0  0  0  0  0  0  0
    4.8793   -0.4939   -0.6424 N   0  0  0  0  0  0  0  0  0  0  0  0
    3.7261    0.2115   -0.2831 C   0  0  0  0  0  0  0  0  0  0  0  0
    3.3233    1.5541   -0.4300 C   0  0  0  0  0  0  0  0  0  0  0  0
    4.0582    2.3619   -0.9709 O   0  0  0  0  0  0  0  0  0  0  0  0
  -19.9808    0.4228   -0.6494 H   0  0  0  0  0  0  0  0  0  0  0  0
  -18.8410   -0.7041   -0.8982 H   0  0  0  0  0  0  0  0  0  0  0  0
  -10.0636    0.7059    0.3324 H   0  0  0  0  0  0  0  0  0  0  0  0
   -8.9238   -0.4210    0.0837 H   0  0  0  0  0  0  0  0  0  0  0  0
    1.8310    2.8573   -0.0659 H   0  0  0  0  0  0  0  0  0  0  0  0
    1.0579   -0.8628    1.2194 H   0  0  0  0  0  0  0  0  0  0  0  0
    3.1445   -2.7148    0.7124 H   0  0  0  0  0  0  0  0  0  0  0  0
    5.6571   -0.1289   -1.0925 H   0  0  0  0  0  0  0  0  0  0  0  0
  3  4  1  0  0  0  0
  4  5  2  0  0  0  0
  4  6  1  0  0  0  0
  6  7  1  0  0  0  0
  7  8  1  0  0  0  0
  8  9  1  0  0  0  0
  9 10  2  0  0  0  0
  9 11  1  0  0  0  0
 11 12  1  0  0  0  0
  7 12  2  0  0  0  0
 12 13  1  0  0  0  0
  3 13  1  0  0  0  0
 13 14  2  0  0  0  0
  1 15  1  0  0  0  0
  1 16  1  0  0  0  0
  2 17  1  0  0  0  0
  2 18  1  0  0  0  0
  3 19  1  0  0  0  0
  6 20  1  0  0  0  0
  8 21  1  0  0  0  0
 11 22  1  0  0  0  0
M  END
$$$$
