C14H19IN2O6
APtclcactv12211717033D 0   0.00000     0.00000
 
 42 43  0  0  1  0  0  0  0  0999 V2000
   -4.7420    0.1497    0.1718 C   0  0  0  0  0  0  0  0  0  0  0  0
   -5.6072    0.6811   -0.9418 C   0  0  0  0  0  0  0  0  0  0  0  0
   -6.6348    1.6582   -0.3672 C   0  0  0  0  0  0  0  0  0  0  0  0
   -7.5132    2.1977   -1.4978 C   0  0  0  0  0  0  0  0  0  0  0  0
   -8.5409    3.1748   -0.9233 C   0  0  0  0  0  0  0  0  0  0  0  0
   -4.9282    0.5150    1.3084 O   0  0  0  0  0  0  0  0  0  0  0  0
   -3.7680   -0.7336   -0.0982 O   0  0  0  0  0  0  0  0  0  0  0  0
   -2.9740   -1.2027    1.0234 C   0  0  0  0  0  0  0  0  0  0  0  0
   -1.9224   -2.1954    0.5240 C   0  0  2  0  0  0  0  0  0  0  0  0
   -2.3971   -2.9982   -0.0402 H   0  0  0  0  0  0  0  0  0  0  0  0
   -1.1217   -2.7736    1.7118 C   0  0  2  0  0  0  0  0  0  0  0  0
   -1.1505   -2.0903    2.5605 H   0  0  0  0  0  0  0  0  0  0  0  0
    0.3187   -2.9003    1.1674 C   0  0  0  0  0  0  0  0  0  0  0  0
    0.2179   -2.3837   -0.2849 C   0  0  1  0  0  0  0  0  0  0  0  0
    0.0730   -3.2155   -0.9743 H   0  0  0  0  0  0  0  0  0  0  0  0
   -0.9407   -1.5199   -0.2919 O   0  0  0  0  0  0  0  0  0  0  0  0
    1.4220   -1.6298   -0.6428 N   0  0  0  0  0  0  0  0  0  0  0  0
    2.2389   -2.0961   -1.6046 C   0  0  0  0  0  0  0  0  0  0  0  0
    1.9684   -3.1399   -2.1666 O   0  0  0  0  0  0  0  0  0  0  0  0
    3.3512   -1.4235   -1.9540 N   0  0  0  0  0  0  0  0  0  0  0  0
    3.6655   -0.2646   -1.3407 C   0  0  0  0  0  0  0  0  0  0  0  0
    4.6715    0.3447   -1.6566 O   0  0  0  0  0  0  0  0  0  0  0  0
    2.8148    0.2377   -0.3261 C   0  0  0  0  0  0  0  0  0  0  0  0
    1.7023   -0.4546    0.0007 C   0  0  0  0  0  0  0  0  0  0  0  0
    3.2712    2.0351    0.6486 I   0  0  0  0  0  0  0  0  0  0  0  0
   -1.6336   -4.0547    2.0845 O   0  0  0  0  0  0  0  0  0  0  0  0
   -4.9835    1.1973   -1.6717 H   0  0  0  0  0  0  0  0  0  0  0  0
   -6.1245   -0.1468   -1.4266 H   0  0  0  0  0  0  0  0  0  0  0  0
   -7.2585    1.1421    0.3627 H   0  0  0  0  0  0  0  0  0  0  0  0
   -6.1175    2.4861    0.1176 H   0  0  0  0  0  0  0  0  0  0  0  0
   -6.8896    2.7139   -2.2277 H   0  0  0  0  0  0  0  0  0  0  0  0
   -8.0305    1.3698   -1.9827 H   0  0  0  0  0  0  0  0  0  0  0  0
   -9.1667    3.5592   -1.7287 H   0  0  0  0  0  0  0  0  0  0  0  0
   -9.1645    2.6587   -0.1934 H   0  0  0  0  0  0  0  0  0  0  0  0
   -8.0236    4.0028   -0.4384 H   0  0  0  0  0  0  0  0  0  0  0  0
   -2.4780   -0.3554    1.4969 H   0  0  0  0  0  0  0  0  0  0  0  0
   -3.6232   -1.6947    1.7476 H   0  0  0  0  0  0  0  0  0  0  0  0
    1.0021   -2.2796    1.7470 H   0  0  0  0  0  0  0  0  0  0  0  0
    0.6420   -3.9412    1.1810 H   0  0  0  0  0  0  0  0  0  0  0  0
    3.9292   -1.7741   -2.6497 H   0  0  0  0  0  0  0  0  0  0  0  0
    1.0415   -0.0872    0.7719 H   0  0  0  0  0  0  0  0  0  0  0  0
   -1.1672   -4.4640    2.8261 H   0  0  0  0  0  0  0  0  0  0  0  0
  1  2  1  0  0  0  0
  2  3  1  0  0  0  0
  3  4  1  0  0  0  0
  4  5  1  0  0  0  0
  1  6  2  0  0  0  0
  1  7  1  0  0  0  0
  7  8  1  0  0  0  0
  8  9  1  0  0  0  0
  9 10  1  0  0  0  0
  9 11  1  0  0  0  0
 11 12  1  0  0  0  0
 11 13  1  0  0  0  0
 13 14  1  0  0  0  0
 14 15  1  0  0  0  0
 14 16  1  0  0  0  0
  9 16  1  0  0  0  0
 14 17  1  0  0  0  0
 17 18  1  0  0  0  0
 18 19  2  0  0  0  0
 18 20  1  0  0  0  0
 20 21  1  0  0  0  0
 21 22  2  0  0  0  0
 21 23  1  0  0  0  0
 23 24  2  0  0  0  0
 17 24  1  0  0  0  0
 23 25  1  0  0  0  0
 11 26  1  0  0  0  0
  2 27  1  0  0  0  0
  2 28  1  0  0  0  0
  3 29  1  0  0  0  0
  3 30  1  0  0  0  0
  4 31  1  0  0  0  0
  4 32  1  0  0  0  0
  5 33  1  0  0  0  0
  5 34  1  0  0  0  0
  5 35  1  0  0  0  0
  8 36  1  0  0  0  0
  8 37  1  0  0  0  0
 13 38  1  0  0  0  0
 13 39  1  0  0  0  0
 20 40  1  0  0  0  0
 24 41  1  0  0  0  0
 26 42  1  0  0  0  0
M  END
$$$$
