C13H17IN2O6
APtclcactv12071713403D 0   0.00000     0.00000
 
 39 40  0  0  1  0  0  0  0  0999 V2000
   -4.9723    0.7946   -0.0049 C   0  0  0  0  0  0  0  0  0  0  0  0
   -5.7513    1.3583   -1.1653 C   0  0  0  0  0  0  0  0  0  0  0  0
   -6.6806    2.4662   -0.6656 C   0  0  0  0  0  0  0  0  0  0  0  0
   -7.4715    3.0386   -1.8436 C   0  0  0  0  0  0  0  0  0  0  0  0
   -5.1430    1.2339    1.1076 O   0  0  0  0  0  0  0  0  0  0  0  0
   -4.0929   -0.1993   -0.2065 O   0  0  0  0  0  0  0  0  0  0  0  0
   -3.3782   -0.6931    0.9569 C   0  0  0  0  0  0  0  0  0  0  0  0
   -2.4283   -1.8153    0.5336 C   0  0  2  0  0  0  0  0  0  0  0  0
   -2.9739   -2.5905   -0.0046 H   0  0  0  0  0  0  0  0  0  0  0  0
   -1.7201   -2.4150    1.7686 C   0  0  2  0  0  0  0  0  0  0  0  0
   -1.6940   -1.6909    2.5829 H   0  0  0  0  0  0  0  0  0  0  0  0
   -0.2901   -2.7205    1.2697 C   0  0  0  0  0  0  0  0  0  0  0  0
   -0.3034   -2.2693   -0.2076 C   0  0  1  0  0  0  0  0  0  0  0  0
   -0.5215   -3.1145   -0.8605 H   0  0  0  0  0  0  0  0  0  0  0  0
   -1.3625   -1.2891   -0.2867 O   0  0  0  0  0  0  0  0  0  0  0  0
    0.9819   -1.6659   -0.5683 N   0  0  0  0  0  0  0  0  0  0  0  0
    1.7649   -2.2636   -1.4846 C   0  0  0  0  0  0  0  0  0  0  0  0
    1.3965   -3.2996   -2.0036 O   0  0  0  0  0  0  0  0  0  0  0  0
    2.9501   -1.7308   -1.8354 N   0  0  0  0  0  0  0  0  0  0  0  0
    3.3734   -0.5825   -1.2694 C   0  0  0  0  0  0  0  0  0  0  0  0
    4.4454   -0.0997   -1.5866 O   0  0  0  0  0  0  0  0  0  0  0  0
    2.5594    0.0571   -0.3030 C   0  0  0  0  0  0  0  0  0  0  0  0
    1.3724   -0.4964    0.0261 C   0  0  0  0  0  0  0  0  0  0  0  0
    3.1844    1.8424    0.5974 I   0  0  0  0  0  0  0  0  0  0  0  0
   -2.3742   -3.6145    2.1875 O   0  0  0  0  0  0  0  0  0  0  0  0
   -5.0603    1.7685   -1.9018 H   0  0  0  0  0  0  0  0  0  0  0  0
   -6.3436    0.5667   -1.6242 H   0  0  0  0  0  0  0  0  0  0  0  0
   -7.3716    2.0561    0.0709 H   0  0  0  0  0  0  0  0  0  0  0  0
   -6.0883    3.2579   -0.2067 H   0  0  0  0  0  0  0  0  0  0  0  0
   -8.1336    3.8278   -1.4876 H   0  0  0  0  0  0  0  0  0  0  0  0
   -6.7805    3.4487   -2.5801 H   0  0  0  0  0  0  0  0  0  0  0  0
   -8.0638    2.2469   -2.3025 H   0  0  0  0  0  0  0  0  0  0  0  0
   -2.8047    0.1194    1.4030 H   0  0  0  0  0  0  0  0  0  0  0  0
   -4.0920   -1.0769    1.6859 H   0  0  0  0  0  0  0  0  0  0  0  0
    0.4431   -2.1475    1.8375 H   0  0  0  0  0  0  0  0  0  0  0  0
   -0.0805   -3.7878    1.3412 H   0  0  0  0  0  0  0  0  0  0  0  0
    3.5022   -2.1749   -2.4979 H   0  0  0  0  0  0  0  0  0  0  0  0
    0.7381   -0.0231    0.7610 H   0  0  0  0  0  0  0  0  0  0  0  0
   -1.9705   -4.0333    2.9600 H   0  0  0  0  0  0  0  0  0  0  0  0
  1  2  1  0  0  0  0
  2  3  1  0  0  0  0
  3  4  1  0  0  0  0
  1  5  2  0  0  0  0
  1  6  1  0  0  0  0
  6  7  1  0  0  0  0
  7  8  1  0  0  0  0
  8  9  1  0  0  0  0
  8 10  1  0  0  0  0
 10 11  1  0  0  0  0
 10 12  1  0  0  0  0
 12 13  1  0  0  0  0
 13 14  1  0  0  0  0
 13 15  1  0  0  0  0
  8 15  1  0  0  0  0
 13 16  1  0  0  0  0
 16 17  1  0  0  0  0
 17 18  2  0  0  0  0
 17 19  1  0  0  0  0
 19 20  1  0  0  0  0
 20 21  2  0  0  0  0
 20 22  1  0  0  0  0
 22 23  2  0  0  0  0
 16 23  1  0  0  0  0
 22 24  1  0  0  0  0
 10 25  1  0  0  0  0
  2 26  1  0  0  0  0
  2 27  1  0  0  0  0
  3 28  1  0  0  0  0
  3 29  1  0  0  0  0
  4 30  1  0  0  0  0
  4 31  1  0  0  0  0
  4 32  1  0  0  0  0
  7 33  1  0  0  0  0
  7 34  1  0  0  0  0
 12 35  1  0  0  0  0
 12 36  1  0  0  0  0
 19 37  1  0  0  0  0
 23 38  1  0  0  0  0
 25 39  1  0  0  0  0
M  END
$$$$
