C6H6N2O2
APtclcactv12211716533D 0   0.00000     0.00000
 
 16 16  0  0  0  0  0  0  0  0999 V2000
    2.2303    1.1155    0.0020 C   0  0  0  0  0  0  0  0  0  0  0  0
    3.0251   -0.8940   -0.0045 C   0  0  0  0  0  0  0  0  0  0  0  0
    1.1868   -1.8565    0.0042 H   0  0  0  0  0  0  0  0  0  0  0  0
    1.1529    0.2513    0.0023 C   0  0  0  0  0  0  0  0  0  0  0  0
   -2.8664    1.1518   -0.0016 O   0  0  0  0  0  0  0  0  0  0  0  0
   -3.4803   -0.9858   -0.0005 O   0  0  0  0  0  0  0  0  0  0  0  0
   -2.5373   -0.0199   -0.0005 C   0  0  0  0  0  0  0  0  0  0  0  0
   -4.3871   -0.6502   -0.0015 H   0  0  0  0  0  0  0  0  0  0  0  0
   -0.2203    0.6016    0.0009 C   0  0  0  0  0  0  0  0  0  0  0  0
   -1.1679   -0.3692    0.0009 C   0  0  0  0  0  0  0  0  0  0  0  0
    3.3394    0.3761   -0.0022 N   0  0  0  0  0  0  0  0  0  0  0  0
    1.6850   -1.0242    0.0037 N   0  0  0  0  0  0  0  0  0  0  0  0
    2.1827    2.1945    0.0007 H   0  0  0  0  0  0  0  0  0  0  0  0
   -0.5123    1.6413   -0.0001 H   0  0  0  0  0  0  0  0  0  0  0  0
   -0.8759   -1.4090    0.0019 H   0  0  0  0  0  0  0  0  0  0  0  0
    3.7312   -1.7113   -0.0057 H   0  0  0  0  0  0  0  0  0  0  0  0
  9 10  2  0  0  0  0
  4  9  1  0  0  0  0
  7 10  1  0  0  0  0
  1  4  2  0  0  0  0
  4 12  1  0  0  0  0
  5  7  2  0  0  0  0
  6  7  1  0  0  0  0
  1 13  1  0  0  0  0
  1 11  1  0  0  0  0
  2 12  1  0  0  0  0
  2 11  2  0  0  0  0
  9 14  1  0  0  0  0
 10 15  1  0  0  0  0
  3 12  1  0  0  0  0
  6  8  1  0  0  0  0
  2 16  1  0  0  0  0
M  END
$$$$
