C8H18NO4PS2
APtclcactv12151716403D 0   0.00000     0.00000
 
 34 33  0  0  0  0  0  0  0  0999 V2000
   -0.8892   -1.3648    0.8240 C   0  0  0  0  0  0  0  0  0  0  0  0
    0.1788   -0.2740    0.7208 C   0  0  0  0  0  0  0  0  0  0  0  0
   -4.1563   -1.7786   -1.5447 C   0  0  0  0  0  0  0  0  0  0  0  0
   -1.9376    2.7032    0.1466 C   0  0  0  0  0  0  0  0  0  0  0  0
    3.0168    1.0218    1.6043 C   0  0  0  0  0  0  0  0  0  0  0  0
    6.4314    0.4082   -1.2406 C   0  0  0  0  0  0  0  0  0  0  0  0
    4.8603    1.7804   -0.8444 H   0  0  0  0  0  0  0  0  0  0  0  0
   -4.5091    0.9350   -0.0259 O   0  0  0  0  0  0  0  0  0  0  0  0
    4.5614   -1.2186   -0.1810 O   0  0  0  0  0  0  0  0  0  0  0  0
    4.2470   -0.0501   -0.2629 C   0  0  0  0  0  0  0  0  0  0  0  0
   -3.2691   -0.6584   -1.5406 O   0  0  0  0  0  0  0  0  0  0  0  0
   -2.1599    1.5705   -0.6958 O   0  0  0  0  0  0  0  0  0  0  0  0
    2.8896    0.4001    0.2121 C   0  0  0  0  0  0  0  0  0  0  0  0
    5.1117    0.8458   -0.7788 N   0  0  0  0  0  0  0  0  0  0  0  0
   -3.1686    0.3761   -0.3111 P   0  0  0  0  0  0  0  0  0  0  0  0
   -2.4446   -0.6349    1.4058 S   0  0  0  0  0  0  0  0  0  0  0  0
    1.7714   -1.0263    0.2867 S   0  0  0  0  0  0  0  0  0  0  0  0
   -1.0438   -1.8158   -0.1561 H   0  0  0  0  0  0  0  0  0  0  0  0
   -0.5608   -2.1293    1.5281 H   0  0  0  0  0  0  0  0  0  0  0  0
   -3.9706   -2.3924   -0.6633 H   0  0  0  0  0  0  0  0  0  0  0  0
   -5.1874   -1.4255   -1.5309 H   0  0  0  0  0  0  0  0  0  0  0  0
   -3.9877   -2.3724   -2.4431 H   0  0  0  0  0  0  0  0  0  0  0  0
   -1.5479    2.3697    1.1084 H   0  0  0  0  0  0  0  0  0  0  0  0
   -1.2172    3.3712   -0.3254 H   0  0  0  0  0  0  0  0  0  0  0  0
   -2.8781    3.2325    0.2995 H   0  0  0  0  0  0  0  0  0  0  0  0
   -0.1067    0.4422   -0.0496 H   0  0  0  0  0  0  0  0  0  0  0  0
    0.2682    0.2388    1.6785 H   0  0  0  0  0  0  0  0  0  0  0  0
    2.4890    1.1399   -0.4810 H   0  0  0  0  0  0  0  0  0  0  0  0
    3.6887    1.8789    1.5595 H   0  0  0  0  0  0  0  0  0  0  0  0
    2.0349    1.3474    1.9479 H   0  0  0  0  0  0  0  0  0  0  0  0
    3.4173    0.2820    2.2974 H   0  0  0  0  0  0  0  0  0  0  0  0
    6.9781   -0.0369   -0.4093 H   0  0  0  0  0  0  0  0  0  0  0  0
    6.3124   -0.3299   -2.0339 H   0  0  0  0  0  0  0  0  0  0  0  0
    6.9855    1.2657   -1.6224 H   0  0  0  0  0  0  0  0  0  0  0  0
 15 16  1  0  0  0  0
 11 15  1  0  0  0  0
 12 15  1  0  0  0  0
  8 15  2  0  0  0  0
  1 16  1  0  0  0  0
  3 11  1  0  0  0  0
  4 12  1  0  0  0  0
  1  2  1  0  0  0  0
  2 17  1  0  0  0  0
 13 17  1  0  0  0  0
 10 13  1  0  0  0  0
  5 13  1  0  0  0  0
 10 14  1  0  0  0  0
  9 10  2  0  0  0  0
  6 14  1  0  0  0  0
  1 18  1  0  0  0  0
  1 19  1  0  0  0  0
  3 20  1  0  0  0  0
  3 21  1  0  0  0  0
  3 22  1  0  0  0  0
  4 23  1  0  0  0  0
  4 24  1  0  0  0  0
  4 25  1  0  0  0  0
  2 26  1  0  0  0  0
  2 27  1  0  0  0  0
 13 28  1  0  0  0  0
  5 29  1  0  0  0  0
  5 30  1  0  0  0  0
  5 31  1  0  0  0  0
  7 14  1  0  0  0  0
  6 32  1  0  0  0  0
  6 33  1  0  0  0  0
  6 34  1  0  0  0  0
M  END
$$$$
