C11H10N2O2
APtclcactv12211717323D 0   0.00000     0.00000
 
 25 27  0  0  1  0  0  0  0  0999 V2000
   -2.6445   -0.8553   -0.3269 C   0  0  2  0  0  0  0  0  0  0  0  0
    2.6632    1.0014    0.1349 C   0  0  0  0  0  0  0  0  0  0  0  0
    2.2150   -1.7471   -0.0999 C   0  0  0  0  0  0  0  0  0  0  0  0
    3.7185    0.1151    0.1347 C   0  0  0  0  0  0  0  0  0  0  0  0
    3.4938   -1.2499    0.0172 C   0  0  0  0  0  0  0  0  0  0  0  0
   -2.4777   -2.7773    0.2890 H   0  0  0  0  0  0  0  0  0  0  0  0
    0.3274    2.6167    0.1096 O   0  0  0  0  0  0  0  0  0  0  0  0
   -2.3474    1.5150   -0.1442 C   0  0  0  0  0  0  0  0  0  0  0  0
   -3.3816    0.4113    0.1586 C   0  0  0  0  0  0  0  0  0  0  0  0
   -2.9556   -1.9675    0.5147 O   0  0  0  0  0  0  0  0  0  0  0  0
    0.1957    1.4106    0.0107 C   0  0  0  0  0  0  0  0  0  0  0  0
    1.3620    0.5189    0.0169 C   0  0  0  0  0  0  0  0  0  0  0  0
    1.1290   -0.8695   -0.1016 C   0  0  0  0  0  0  0  0  0  0  0  0
   -1.1703   -0.5010   -0.2154 C   0  0  0  0  0  0  0  0  0  0  0  0
   -0.1451   -1.3109   -0.2137 N   0  0  0  0  0  0  0  0  0  0  0  0
   -1.0347    0.8482   -0.1084 N   0  0  0  0  0  0  0  0  0  0  0  0
   -2.9057   -1.0770   -1.3617 H   0  0  0  0  0  0  0  0  0  0  0  0
   -2.5276    1.9394   -1.1319 H   0  0  0  0  0  0  0  0  0  0  0  0
   -2.3949    2.2946    0.6161 H   0  0  0  0  0  0  0  0  0  0  0  0
   -4.2987    0.5702   -0.4086 H   0  0  0  0  0  0  0  0  0  0  0  0
   -3.5904    0.3553    1.2270 H   0  0  0  0  0  0  0  0  0  0  0  0
    2.8438    2.0623    0.2256 H   0  0  0  0  0  0  0  0  0  0  0  0
    2.0529   -2.8110   -0.1905 H   0  0  0  0  0  0  0  0  0  0  0  0
    4.7289    0.4856    0.2262 H   0  0  0  0  0  0  0  0  0  0  0  0
    4.3324   -1.9305    0.0186 H   0  0  0  0  0  0  0  0  0  0  0  0
  7 11  2  0  0  0  0
  1 10  1  0  0  0  0
 14 16  1  0  0  0  0
 11 16  1  0  0  0  0
  8 16  1  0  0  0  0
 14 15  2  0  0  0  0
 13 15  1  0  0  0  0
  1 14  1  0  0  0  0
 11 12  1  0  0  0  0
 12 13  1  0  0  0  0
  2 12  2  0  0  0  0
  3 13  2  0  0  0  0
  1  9  1  0  0  0  0
  8  9  1  0  0  0  0
  2  4  1  0  0  0  0
  3  5  1  0  0  0  0
  4  5  2  0  0  0  0
  6 10  1  0  0  0  0
  1 17  1  0  0  0  0
  8 18  1  0  0  0  0
  8 19  1  0  0  0  0
  9 20  1  0  0  0  0
  9 21  1  0  0  0  0
  2 22  1  0  0  0  0
  3 23  1  0  0  0  0
  4 24  1  0  0  0  0
  5 25  1  0  0  0  0
M  END
$$$$
