C17H27NO2
APtclcactv12211717143D 0   0.00000     0.00000
 
 47 48  0  0  0  0  0  0  0  0999 V2000
    1.3843    0.1508   -1.5046 C   0  0  0  0  0  0  0  0  0  0  0  0
    1.1976   -0.2528    0.8500 C   0  0  0  0  0  0  0  0  0  0  0  0
    2.6881   -0.3052   -1.4821 C   0  0  0  0  0  0  0  0  0  0  0  0
    2.5010   -0.7097    0.8778 C   0  0  0  0  0  0  0  0  0  0  0  0
   -0.9176    1.8825    0.5632 C   0  0  0  0  0  0  0  0  0  0  0  0
   -0.6353    3.4784   -1.2357 C   0  0  0  0  0  0  0  0  0  0  0  0
   -0.0201    4.0830    1.0267 C   0  0  0  0  0  0  0  0  0  0  0  0
    5.0456   -1.6152    0.9981 C   0  0  0  0  0  0  0  0  0  0  0  0
   -1.9334   -1.5255    1.7962 H   0  0  0  0  0  0  0  0  0  0  0  0
    0.6397    0.1770   -0.3399 C   0  0  0  0  0  0  0  0  0  0  0  0
    3.2503   -0.7370   -0.2895 C   0  0  0  0  0  0  0  0  0  0  0  0
   -1.5865   -1.6445   -0.8291 C   0  0  0  0  0  0  0  0  0  0  0  0
   -3.1655    0.0685    0.0735 C   0  0  0  0  0  0  0  0  0  0  0  0
   -2.5261   -2.7575   -0.3606 C   0  0  0  0  0  0  0  0  0  0  0  0
   -4.1051   -1.0444    0.5420 C   0  0  0  0  0  0  0  0  0  0  0  0
   -3.9698   -2.2515   -0.3884 C   0  0  0  0  0  0  0  0  0  0  0  0
   -1.3775   -0.8222    1.4338 O   0  0  0  0  0  0  0  0  0  0  0  0
    4.5326   -1.1864   -0.2648 O   0  0  0  0  0  0  0  0  0  0  0  0
   -0.7823    0.6754   -0.3672 C   0  0  0  0  0  0  0  0  0  0  0  0
   -0.1066    2.9928    0.0460 N   0  0  0  0  0  0  0  0  0  0  0  0
   -1.7219   -0.4375    0.1013 C   0  0  0  0  0  0  0  0  0  0  0  0
   -1.0449    0.9688   -1.3836 H   0  0  0  0  0  0  0  0  0  0  0  0
   -0.5580   -2.0050   -0.8093 H   0  0  0  0  0  0  0  0  0  0  0  0
   -1.8492   -1.3511   -1.8455 H   0  0  0  0  0  0  0  0  0  0  0  0
   -3.4282    0.3619   -0.9428 H   0  0  0  0  0  0  0  0  0  0  0  0
   -3.2619    0.9284    0.7364 H   0  0  0  0  0  0  0  0  0  0  0  0
   -1.9627    2.1880    0.6123 H   0  0  0  0  0  0  0  0  0  0  0  0
   -0.5706    1.6130    1.5607 H   0  0  0  0  0  0  0  0  0  0  0  0
   -2.4297   -3.6174   -1.0234 H   0  0  0  0  0  0  0  0  0  0  0  0
   -2.2634   -3.0509    0.6558 H   0  0  0  0  0  0  0  0  0  0  0  0
   -3.8424   -1.3378    1.5584 H   0  0  0  0  0  0  0  0  0  0  0  0
   -5.1336   -0.6839    0.5223 H   0  0  0  0  0  0  0  0  0  0  0  0
    0.9477    0.4912   -2.4319 H   0  0  0  0  0  0  0  0  0  0  0  0
    0.6138   -0.2316    1.7584 H   0  0  0  0  0  0  0  0  0  0  0  0
   -4.2324   -1.9580   -1.4047 H   0  0  0  0  0  0  0  0  0  0  0  0
   -4.6391   -3.0443   -0.0546 H   0  0  0  0  0  0  0  0  0  0  0  0
    3.2693   -0.3258   -2.3922 H   0  0  0  0  0  0  0  0  0  0  0  0
    2.9365   -1.0450    1.8075 H   0  0  0  0  0  0  0  0  0  0  0  0
   -1.6586    3.8277   -1.0977 H   0  0  0  0  0  0  0  0  0  0  0  0
   -0.0164    4.3001   -1.5961 H   0  0  0  0  0  0  0  0  0  0  0  0
   -0.6233    2.6678   -1.9643 H   0  0  0  0  0  0  0  0  0  0  0  0
    0.4393    3.7118    1.9429 H   0  0  0  0  0  0  0  0  0  0  0  0
    0.5858    4.8918    0.6184 H   0  0  0  0  0  0  0  0  0  0  0  0
   -1.0210    4.4541    1.2467 H   0  0  0  0  0  0  0  0  0  0  0  0
    6.0763   -1.9485    0.8774 H   0  0  0  0  0  0  0  0  0  0  0  0
    5.0123   -0.7856    1.7043 H   0  0  0  0  0  0  0  0  0  0  0  0
    4.4393   -2.4385    1.3759 H   0  0  0  0  0  0  0  0  0  0  0  0
 19 21  1  0  0  0  0
 12 21  1  0  0  0  0
 13 21  1  0  0  0  0
 17 21  1  0  0  0  0
 10 19  1  0  0  0  0
  5 19  1  0  0  0  0
 12 14  1  0  0  0  0
 13 15  1  0  0  0  0
  1 10  1  0  0  0  0
  2 10  2  0  0  0  0
  5 20  1  0  0  0  0
 14 16  1  0  0  0  0
  1  3  2  0  0  0  0
  2  4  1  0  0  0  0
  6 20  1  0  0  0  0
  7 20  1  0  0  0  0
  3 11  1  0  0  0  0
 11 18  1  0  0  0  0
  8 18  1  0  0  0  0
 15 16  1  0  0  0  0
  4 11  2  0  0  0  0
 19 22  1  0  0  0  0
 12 23  1  0  0  0  0
 12 24  1  0  0  0  0
 13 25  1  0  0  0  0
 13 26  1  0  0  0  0
  9 17  1  0  0  0  0
  5 27  1  0  0  0  0
  5 28  1  0  0  0  0
 14 29  1  0  0  0  0
 14 30  1  0  0  0  0
 15 31  1  0  0  0  0
 15 32  1  0  0  0  0
  1 33  1  0  0  0  0
  2 34  1  0  0  0  0
 16 35  1  0  0  0  0
 16 36  1  0  0  0  0
  3 37  1  0  0  0  0
  4 38  1  0  0  0  0
  6 39  1  0  0  0  0
  6 40  1  0  0  0  0
  6 41  1  0  0  0  0
  7 42  1  0  0  0  0
  7 43  1  0  0  0  0
  7 44  1  0  0  0  0
  8 45  1  0  0  0  0
  8 46  1  0  0  0  0
  8 47  1  0  0  0  0
M  END
$$$$
