C8H10O2
APtclcactv12151716323D 0   0.00000     0.00000
 
 20 20  0  0  0  0  0  0  0  0999 V2000
    0.6960   -0.1807   -0.0021 C   0  0  0  0  0  0  0  0  0  0  0  0
   -0.6960   -0.1807   -0.0009 C   0  0  0  0  0  0  0  0  0  0  0  0
   -1.3774   -1.3575   -0.0009 O   0  0  0  0  0  0  0  0  0  0  0  0
   -2.8044   -1.2809    0.0003 C   0  0  0  0  0  0  0  0  0  0  0  0
   -1.3855    1.0207    0.0007 C   0  0  0  0  0  0  0  0  0  0  0  0
   -0.6911    2.2165    0.0012 C   0  0  0  0  0  0  0  0  0  0  0  0
    0.6910    2.2165    0.0001 C   0  0  0  0  0  0  0  0  0  0  0  0
    1.3855    1.0207   -0.0016 C   0  0  0  0  0  0  0  0  0  0  0  0
    1.3775   -1.3575    0.0020 O   0  0  0  0  0  0  0  0  0  0  0  0
    2.8044   -1.2809    0.0005 C   0  0  0  0  0  0  0  0  0  0  0  0
   -3.1389   -0.7488    0.8908 H   0  0  0  0  0  0  0  0  0  0  0  0
   -3.1404   -0.7479   -0.8891 H   0  0  0  0  0  0  0  0  0  0  0  0
   -3.2223   -2.2877    0.0001 H   0  0  0  0  0  0  0  0  0  0  0  0
   -2.4655    1.0235    0.0013 H   0  0  0  0  0  0  0  0  0  0  0  0
   -1.2299    3.1525    0.0021 H   0  0  0  0  0  0  0  0  0  0  0  0
    1.2298    3.1525    0.0005 H   0  0  0  0  0  0  0  0  0  0  0  0
    2.4655    1.0235   -0.0028 H   0  0  0  0  0  0  0  0  0  0  0  0
    3.2223   -2.2876    0.0041 H   0  0  0  0  0  0  0  0  0  0  0  0
    3.1389   -0.7519   -0.8918 H   0  0  0  0  0  0  0  0  0  0  0  0
    3.1404   -0.7449    0.8881 H   0  0  0  0  0  0  0  0  0  0  0  0
  1  2  1  0  0  0  0
  2  3  1  0  0  0  0
  3  4  1  0  0  0  0
  2  5  2  0  0  0  0
  5  6  1  0  0  0  0
  6  7  2  0  0  0  0
  7  8  1  0  0  0  0
  1  8  2  0  0  0  0
  1  9  1  0  0  0  0
  9 10  1  0  0  0  0
  4 11  1  0  0  0  0
  4 12  1  0  0  0  0
  4 13  1  0  0  0  0
  5 14  1  0  0  0  0
  6 15  1  0  0  0  0
  7 16  1  0  0  0  0
  8 17  1  0  0  0  0
 10 18  1  0  0  0  0
 10 19  1  0  0  0  0
 10 20  1  0  0  0  0
M  END
$$$$
