C11H16N2O3
APtclcactv12211717353D 0   0.00000     0.00000
 
 32 32  0  0  0  0  0  0  0  0999 V2000
    0.0577    1.1613   -1.7070 C   0  0  0  0  0  0  0  0  0  0  0  0
   -3.4090   -0.3874    0.9811 C   0  0  0  0  0  0  0  0  0  0  0  0
   -1.8002    1.9051    0.6505 C   0  0  0  0  0  0  0  0  0  0  0  0
    1.4007    0.9880   -2.4192 C   0  0  0  0  0  0  0  0  0  0  0  0
   -4.3624   -1.1198    0.0348 C   0  0  0  0  0  0  0  0  0  0  0  0
    1.6244   -2.5444   -0.2385 H   0  0  0  0  0  0  0  0  0  0  0  0
    2.7768    0.8143    1.5837 H   0  0  0  0  0  0  0  0  0  0  0  0
   -0.3958   -1.6940   -1.3473 O   0  0  0  0  0  0  0  0  0  0  0  0
    0.9752    2.2952    0.8124 O   0  0  0  0  0  0  0  0  0  0  0  0
    3.2237   -1.4904    1.1783 O   0  0  0  0  0  0  0  0  0  0  0  0
   -1.2712    0.5482    0.2630 C   0  0  0  0  0  0  0  0  0  0  0  0
    0.3502   -1.0461   -0.6447 C   0  0  0  0  0  0  0  0  0  0  0  0
    1.0939    1.1218    0.5316 C   0  0  0  0  0  0  0  0  0  0  0  0
    2.2683   -0.9067    0.7066 C   0  0  0  0  0  0  0  0  0  0  0  0
   -1.9962   -0.5222    0.4743 C   0  0  0  0  0  0  0  0  0  0  0  0
    0.0918    0.4228   -0.3675 C   0  0  0  0  0  0  0  0  0  0  0  0
    1.4386   -1.6064   -0.0757 N   0  0  0  0  0  0  0  0  0  0  0  0
    2.1231    0.3889    1.0070 N   0  0  0  0  0  0  0  0  0  0  0  0
   -0.1271    2.2213   -1.5329 H   0  0  0  0  0  0  0  0  0  0  0  0
   -0.7385    0.7509   -2.3280 H   0  0  0  0  0  0  0  0  0  0  0  0
   -1.5814   -1.5013    0.2853 H   0  0  0  0  0  0  0  0  0  0  0  0
   -1.0923    2.6734    0.3396 H   0  0  0  0  0  0  0  0  0  0  0  0
   -2.7590    2.0748    0.1606 H   0  0  0  0  0  0  0  0  0  0  0  0
   -1.9319    1.9486    1.7317 H   0  0  0  0  0  0  0  0  0  0  0  0
    2.1969    1.3985   -1.7981 H   0  0  0  0  0  0  0  0  0  0  0  0
    1.5856   -0.0720   -2.5933 H   0  0  0  0  0  0  0  0  0  0  0  0
    1.3765    1.5142   -3.3735 H   0  0  0  0  0  0  0  0  0  0  0  0
   -3.6801    0.6674    1.0254 H   0  0  0  0  0  0  0  0  0  0  0  0
   -3.4806   -0.8231    1.9777 H   0  0  0  0  0  0  0  0  0  0  0  0
   -5.3843   -1.0223    0.4013 H   0  0  0  0  0  0  0  0  0  0  0  0
   -4.2908   -0.6841   -0.9618 H   0  0  0  0  0  0  0  0  0  0  0  0
   -4.0913   -2.1746   -0.0095 H   0  0  0  0  0  0  0  0  0  0  0  0
 12 16  1  0  0  0  0
 13 16  1  0  0  0  0
 11 16  1  0  0  0  0
  1 16  1  0  0  0  0
 12 17  1  0  0  0  0
  8 12  2  0  0  0  0
 13 18  1  0  0  0  0
  9 13  2  0  0  0  0
 11 15  2  0  0  0  0
  3 11  1  0  0  0  0
  1  4  1  0  0  0  0
 14 17  1  0  0  0  0
  2 15  1  0  0  0  0
 10 14  2  0  0  0  0
  2  5  1  0  0  0  0
 14 18  1  0  0  0  0
  1 19  1  0  0  0  0
  1 20  1  0  0  0  0
  6 17  1  0  0  0  0
  7 18  1  0  0  0  0
 15 21  1  0  0  0  0
  3 22  1  0  0  0  0
  3 23  1  0  0  0  0
  3 24  1  0  0  0  0
  4 25  1  0  0  0  0
  4 26  1  0  0  0  0
  4 27  1  0  0  0  0
  2 28  1  0  0  0  0
  2 29  1  0  0  0  0
  5 30  1  0  0  0  0
  5 31  1  0  0  0  0
  5 32  1  0  0  0  0
M  END
$$$$
