C12H9Cl2NO3
APtclcactv12111704563D 0   0.00000     0.00000
 
 27 28  0  0  0  0  0  0  0  0999 V2000
    1.0831    1.2023   -0.0741 C   0  0  0  0  0  0  0  0  0  0  0  0
    1.0423   -1.1880    0.1696 C   0  0  0  0  0  0  0  0  0  0  0  0
    3.1285   -0.0451   -0.1191 C   0  0  0  0  0  0  0  0  0  0  0  0
   -3.9477   -1.4858    0.8745 C   0  0  0  0  0  0  0  0  0  0  0  0
    0.3700    0.0247    0.1036 C   0  0  0  0  0  0  0  0  0  0  0  0
    2.4606    1.1649   -0.1848 C   0  0  0  0  0  0  0  0  0  0  0  0
    2.4199   -1.2203    0.0584 C   0  0  0  0  0  0  0  0  0  0  0  0
   -1.5519   -1.8027   -1.0156 O   0  0  0  0  0  0  0  0  0  0  0  0
   -1.1808    1.9117    1.4901 O   0  0  0  0  0  0  0  0  0  0  0  0
   -1.8585   -0.8406   -0.3446 C   0  0  0  0  0  0  0  0  0  0  0  0
   -1.7062    0.9918    0.8961 C   0  0  0  0  0  0  0  0  0  0  0  0
    3.2613   -2.7365    0.1409 Cl  0  0  0  0  0  0  0  0  0  0  0  0
    3.3531    2.6373   -0.4070 Cl  0  0  0  0  0  0  0  0  0  0  0  0
   -4.0686   -0.0745   -1.1822 C   0  0  0  0  0  0  0  0  0  0  0  0
   -3.0339    0.7955    0.8474 O   0  0  0  0  0  0  0  0  0  0  0  0
   -3.2564   -0.4026    0.0441 C   0  0  0  0  0  0  0  0  0  0  0  0
   -1.0271    0.0600    0.2166 N   0  0  0  0  0  0  0  0  0  0  0  0
   -4.5603    1.1295   -1.3393 C   0  0  0  0  0  0  0  0  0  0  0  0
    0.5618    2.1465   -0.1302 H   0  0  0  0  0  0  0  0  0  0  0  0
    0.4896   -2.1055    0.3081 H   0  0  0  0  0  0  0  0  0  0  0  0
    4.2047   -0.0724   -0.2062 H   0  0  0  0  0  0  0  0  0  0  0  0
   -4.2453   -0.8320   -1.9314 H   0  0  0  0  0  0  0  0  0  0  0  0
   -3.3710   -1.6725    1.7805 H   0  0  0  0  0  0  0  0  0  0  0  0
   -4.9500   -1.1528    1.1439 H   0  0  0  0  0  0  0  0  0  0  0  0
   -4.0145   -2.4039    0.2907 H   0  0  0  0  0  0  0  0  0  0  0  0
   -5.1424    1.3646   -2.2181 H   0  0  0  0  0  0  0  0  0  0  0  0
   -4.3836    1.8870   -0.5900 H   0  0  0  0  0  0  0  0  0  0  0  0
  1  5  2  0  0  0  0
  1  6  1  0  0  0  0
  2  5  1  0  0  0  0
  5 17  1  0  0  0  0
  3  6  2  0  0  0  0
  6 13  1  0  0  0  0
  2  7  2  0  0  0  0
 10 17  1  0  0  0  0
 11 17  1  0  0  0  0
  3  7  1  0  0  0  0
  7 12  1  0  0  0  0
 10 16  1  0  0  0  0
 15 16  1  0  0  0  0
 14 16  1  0  0  0  0
  4 16  1  0  0  0  0
  8 10  2  0  0  0  0
 11 15  1  0  0  0  0
 14 18  2  0  0  0  0
  9 11  2  0  0  0  0
  1 19  1  0  0  0  0
  2 20  1  0  0  0  0
  3 21  1  0  0  0  0
 14 22  1  0  0  0  0
  4 23  1  0  0  0  0
  4 24  1  0  0  0  0
  4 25  1  0  0  0  0
 18 26  1  0  0  0  0
 18 27  1  0  0  0  0
M  END
$$$$
