C4H6O
APtclcactv12211716373D 0   0.00000     0.00000
 
 11 10  0  0  0  0  0  0  0  0999 V2000
   -1.1627   -0.3991   -0.0003 C   0  0  0  0  0  0  0  0  0  0  0  0
   -2.3150    0.2396   -0.0000 C   0  0  0  0  0  0  0  0  0  0  0  0
   -0.0000    0.2995    0.0001 O   0  0  0  0  0  0  0  0  0  0  0  0
    1.1627   -0.3991   -0.0002 C   0  0  0  0  0  0  0  0  0  0  0  0
    2.3150    0.2396    0.0001 C   0  0  0  0  0  0  0  0  0  0  0  0
   -1.1438   -1.4790    0.0037 H   0  0  0  0  0  0  0  0  0  0  0  0
   -2.3339    1.3195    0.0005 H   0  0  0  0  0  0  0  0  0  0  0  0
   -3.2408   -0.3166   -0.0003 H   0  0  0  0  0  0  0  0  0  0  0  0
    1.1438   -1.4790   -0.0007 H   0  0  0  0  0  0  0  0  0  0  0  0
    3.2408   -0.3166   -0.0001 H   0  0  0  0  0  0  0  0  0  0  0  0
    2.3339    1.3195    0.0006 H   0  0  0  0  0  0  0  0  0  0  0  0
  1  2  2  0  0  0  0
  1  3  1  0  0  0  0
  3  4  1  0  0  0  0
  4  5  2  0  0  0  0
  1  6  1  0  0  0  0
  2  7  1  0  0  0  0
  2  8  1  0  0  0  0
  4  9  1  0  0  0  0
  5 10  1  0  0  0  0
  5 11  1  0  0  0  0
M  END
$$$$
