C4H6O2
APtclcactv12211716383D 0   0.00000     0.00000
 
 12 11  0  0  0  0  0  0  0  0999 V2000
   -0.9068    0.0490   -0.0014 C   0  0  0  0  0  0  0  0  0  0  0  0
   -2.1606   -0.7871    0.0001 C   0  0  0  0  0  0  0  0  0  0  0  0
   -0.9848    1.2548    0.0009 O   0  0  0  0  0  0  0  0  0  0  0  0
    0.2969   -0.5459    0.0004 O   0  0  0  0  0  0  0  0  0  0  0  0
    1.3849    0.2651   -0.0010 C   0  0  0  0  0  0  0  0  0  0  0  0
    2.5945   -0.2559    0.0005 C   0  0  0  0  0  0  0  0  0  0  0  0
   -3.0330   -0.1337    0.0032 H   0  0  0  0  0  0  0  0  0  0  0  0
   -2.1798   -1.4146   -0.8910 H   0  0  0  0  0  0  0  0  0  0  0  0
   -2.1757   -1.4177    0.8890 H   0  0  0  0  0  0  0  0  0  0  0  0
    1.2590    1.3377   -0.0035 H   0  0  0  0  0  0  0  0  0  0  0  0
    3.4605    0.3895   -0.0006 H   0  0  0  0  0  0  0  0  0  0  0  0
    2.7205   -1.3285    0.0030 H   0  0  0  0  0  0  0  0  0  0  0  0
  1  2  1  0  0  0  0
  1  3  2  0  0  0  0
  1  4  1  0  0  0  0
  4  5  1  0  0  0  0
  5  6  2  0  0  0  0
  2  7  1  0  0  0  0
  2  8  1  0  0  0  0
  2  9  1  0  0  0  0
  5 10  1  0  0  0  0
  6 11  1  0  0  0  0
  6 12  1  0  0  0  0
M  END
$$$$
