C5H6N4O3
APtclcactv12211716413D 0   0.00000     0.00000
 
 18 18  0  0  0  0  0  0  0  0999 V2000
  -11.4016   -0.5349   -0.4430 O   0  0  0  0  0  0  0  0  0  0  0  0
    0.6878    1.6949    0.0721 N   0  0  0  0  0  0  0  0  0  0  0  0
   -0.2478    0.8532    0.5443 C   0  0  0  0  0  0  0  0  0  0  0  0
   -1.3259    1.2982    0.8883 O   0  0  0  0  0  0  0  0  0  0  0  0
   -0.0216   -0.4702    0.6456 N   0  0  0  0  0  0  0  0  0  0  0  0
    1.1998   -0.9980    0.2591 C   0  0  0  0  0  0  0  0  0  0  0  0
    1.7116   -2.2313    0.2408 N   0  0  0  0  0  0  0  0  0  0  0  0
    2.9340   -2.1973   -0.2252 C   0  0  0  0  0  0  0  0  0  0  0  0
    3.2685   -0.9286   -0.5312 N   0  0  0  0  0  0  0  0  0  0  0  0
    2.1762   -0.1397   -0.2309 C   0  0  0  0  0  0  0  0  0  0  0  0
    1.8963    1.2409   -0.3204 C   0  0  0  0  0  0  0  0  0  0  0  0
    2.7360    2.0133   -0.7468 O   0  0  0  0  0  0  0  0  0  0  0  0
  -11.6727    0.3929   -0.4719 H   0  0  0  0  0  0  0  0  0  0  0  0
  -10.5018   -0.6918   -0.7605 H   0  0  0  0  0  0  0  0  0  0  0  0
    0.4899    2.6424    0.0088 H   0  0  0  0  0  0  0  0  0  0  0  0
   -0.7147   -1.0549    0.9899 H   0  0  0  0  0  0  0  0  0  0  0  0
    3.5774   -3.0563   -0.3460 H   0  0  0  0  0  0  0  0  0  0  0  0
    4.1161   -0.6267   -0.8938 H   0  0  0  0  0  0  0  0  0  0  0  0
  2  3  1  0  0  0  0
  3  4  2  0  0  0  0
  3  5  1  0  0  0  0
  5  6  1  0  0  0  0
  6  7  1  0  0  0  0
  7  8  2  0  0  0  0
  8  9  1  0  0  0  0
  9 10  1  0  0  0  0
  6 10  2  0  0  0  0
 10 11  1  0  0  0  0
  2 11  1  0  0  0  0
 11 12  2  0  0  0  0
  1 13  1  0  0  0  0
  1 14  1  0  0  0  0
  2 15  1  0  0  0  0
  5 16  1  0  0  0  0
  8 17  1  0  0  0  0
  9 18  1  0  0  0  0
M  END
$$$$
