C6H5N5O2
APtclcactv12211716523D 0   0.00000     0.00000
 
 18 19  0  0  0  0  0  0  0  0999 V2000
    1.5455    2.2779    0.0013 H   0  0  0  0  0  0  0  0  0  0  0  0
   -1.7262   -1.8536   -0.0013 H   0  0  0  0  0  0  0  0  0  0  0  0
    3.8165    1.8272    0.0004 H   0  0  0  0  0  0  0  0  0  0  0  0
    4.3719    0.2415   -0.0010 H   0  0  0  0  0  0  0  0  0  0  0  0
    0.7035   -2.5852    0.0027 O   0  0  0  0  0  0  0  0  0  0  0  0
   -3.7106   -0.3738   -0.0006 O   0  0  0  0  0  0  0  0  0  0  0  0
    0.8888   -1.3789   -0.0014 C   0  0  0  0  0  0  0  0  0  0  0  0
    2.3454    0.4218   -0.0004 C   0  0  0  0  0  0  0  0  0  0  0  0
   -2.5500   -0.0024   -0.0005 C   0  0  0  0  0  0  0  0  0  0  0  0
    3.6365    0.8740   -0.0003 N   0  0  0  0  0  0  0  0  0  0  0  0
   -2.2245    1.4269    0.0006 C   0  0  0  0  0  0  0  0  0  0  0  0
    0.0193    0.9184    0.0006 C   0  0  0  0  0  0  0  0  0  0  0  0
   -0.2478   -0.4439   -0.0005 C   0  0  0  0  0  0  0  0  0  0  0  0
   -1.5397   -0.9017   -0.0010 N   0  0  0  0  0  0  0  0  0  0  0  0
    1.3380    1.3303    0.0006 N   0  0  0  0  0  0  0  0  0  0  0  0
   -0.9751    1.8118    0.0010 N   0  0  0  0  0  0  0  0  0  0  0  0
    2.1316   -0.8774   -0.0013 N   0  0  0  0  0  0  0  0  0  0  0  0
   -3.0163    2.1614    0.0006 H   0  0  0  0  0  0  0  0  0  0  0  0
 12 13  2  0  0  0  0
 12 15  1  0  0  0  0
 12 16  1  0  0  0  0
  7 13  1  0  0  0  0
 13 14  1  0  0  0  0
  8 15  1  0  0  0  0
 11 16  2  0  0  0  0
  7 17  1  0  0  0  0
  5  7  2  0  0  0  0
  9 14  1  0  0  0  0
  8 10  1  0  0  0  0
  6  9  2  0  0  0  0
  8 17  2  0  0  0  0
  9 11  1  0  0  0  0
  1 15  1  0  0  0  0
  2 14  1  0  0  0  0
 11 18  1  0  0  0  0
  3 10  1  0  0  0  0
  4 10  1  0  0  0  0
M  END
$$$$
