C15H15ClN2O4S
APtclcactv12211717073D 0   0.00000     0.00000
 
 38 39  0  0  0  0  0  0  0  0999 V2000
    0.8512    0.2387   -0.1263 C   0  0  0  0  0  0  0  0  0  0  0  0
    2.0986   -2.1743    0.4663 C   0  0  0  0  0  0  0  0  0  0  0  0
   -5.3540    1.3532    0.9284 C   0  0  0  0  0  0  0  0  0  0  0  0
   -5.5626   -0.1405   -0.9345 C   0  0  0  0  0  0  0  0  0  0  0  0
   -6.1454    0.6569    0.0334 C   0  0  0  0  0  0  0  0  0  0  0  0
   -3.1166    2.0131    1.8343 C   0  0  0  0  0  0  0  0  0  0  0  0
   -3.5532   -1.1125   -2.0656 C   0  0  0  0  0  0  0  0  0  0  0  0
   -1.4667    1.1219   -0.4437 H   0  0  0  0  0  0  0  0  0  0  0  0
   -0.2275   -3.7472   -0.0939 H   0  0  0  0  0  0  0  0  0  0  0  0
    4.8741    2.4019    0.9264 H   0  0  0  0  0  0  0  0  0  0  0  0
    3.6166    1.7542    1.8330 H   0  0  0  0  0  0  0  0  0  0  0  0
    0.0805   -0.8966    0.1363 C   0  0  0  0  0  0  0  0  0  0  0  0
    0.7144   -2.1113    0.4347 C   0  0  0  0  0  0  0  0  0  0  0  0
    2.2262    0.1592   -0.0909 C   0  0  0  0  0  0  0  0  0  0  0  0
    2.8497   -1.0436    0.2040 C   0  0  0  0  0  0  0  0  0  0  0  0
   -3.3897    0.4543   -0.1127 C   0  0  0  0  0  0  0  0  0  0  0  0
   -3.9783    1.2543    0.8582 C   0  0  0  0  0  0  0  0  0  0  0  0
   -4.1875   -0.2438   -1.0102 C   0  0  0  0  0  0  0  0  0  0  0  0
   -2.0591   -1.8082    0.3296 O   0  0  0  0  0  0  0  0  0  0  0  0
    4.1826    1.1992   -1.3671 O   0  0  0  0  0  0  0  0  0  0  0  0
    2.2797    2.6534   -0.6517 O   0  0  0  0  0  0  0  0  0  0  0  0
   -0.0239   -3.2202    0.6909 O   0  0  0  0  0  0  0  0  0  0  0  0
   -1.3914   -0.8179    0.1004 C   0  0  0  0  0  0  0  0  0  0  0  0
    4.5831   -1.1301    0.2448 Cl  0  0  0  0  0  0  0  0  0  0  0  0
    4.0078    1.9680    0.9715 N   0  0  0  0  0  0  0  0  0  0  0  0
   -1.9969    0.3515   -0.1863 N   0  0  0  0  0  0  0  0  0  0  0  0
    3.1965    1.5921   -0.4224 S   0  0  0  0  0  0  0  0  0  0  0  0
    0.3698    1.1765   -0.3612 H   0  0  0  0  0  0  0  0  0  0  0  0
    2.5910   -3.1077    0.6956 H   0  0  0  0  0  0  0  0  0  0  0  0
   -5.8121    1.9786    1.6804 H   0  0  0  0  0  0  0  0  0  0  0  0
   -2.8838    2.9963    1.4255 H   0  0  0  0  0  0  0  0  0  0  0  0
   -3.6512    2.1289    2.7771 H   0  0  0  0  0  0  0  0  0  0  0  0
   -2.1915    1.4629    2.0064 H   0  0  0  0  0  0  0  0  0  0  0  0
   -6.1835   -0.6830   -1.6321 H   0  0  0  0  0  0  0  0  0  0  0  0
   -3.5254   -2.1452   -1.7177 H   0  0  0  0  0  0  0  0  0  0  0  0
   -4.1377   -1.0541   -2.9838 H   0  0  0  0  0  0  0  0  0  0  0  0
   -2.5377   -0.7667   -2.2588 H   0  0  0  0  0  0  0  0  0  0  0  0
   -7.2210    0.7359    0.0905 H   0  0  0  0  0  0  0  0  0  0  0  0
  1 12  2  0  0  0  0
 12 23  1  0  0  0  0
 12 13  1  0  0  0  0
  1 14  1  0  0  0  0
 23 26  1  0  0  0  0
 19 23  2  0  0  0  0
  2 13  2  0  0  0  0
 13 22  1  0  0  0  0
 14 15  2  0  0  0  0
 14 27  1  0  0  0  0
 16 26  1  0  0  0  0
 15 24  1  0  0  0  0
 25 27  1  0  0  0  0
 20 27  2  0  0  0  0
 21 27  2  0  0  0  0
 16 17  2  0  0  0  0
 16 18  1  0  0  0  0
  3 17  1  0  0  0  0
  6 17  1  0  0  0  0
  4 18  2  0  0  0  0
  7 18  1  0  0  0  0
  3  5  2  0  0  0  0
  2 15  1  0  0  0  0
  4  5  1  0  0  0  0
  1 28  1  0  0  0  0
  8 26  1  0  0  0  0
  2 29  1  0  0  0  0
  9 22  1  0  0  0  0
 10 25  1  0  0  0  0
 11 25  1  0  0  0  0
  3 30  1  0  0  0  0
  6 31  1  0  0  0  0
  6 32  1  0  0  0  0
  6 33  1  0  0  0  0
  4 34  1  0  0  0  0
  7 35  1  0  0  0  0
  7 36  1  0  0  0  0
  7 37  1  0  0  0  0
  5 38  1  0  0  0  0
M  END
$$$$
