C8H10
APtclcactv12151716313D 0   0.00000     0.00000
 
 18 18  0  0  0  0  0  0  0  0999 V2000
   -0.5110    0.6913    0.0021 C   0  0  0  0  0  0  0  0  0  0  0  0
   -0.5110   -0.6913    0.0006 C   0  0  0  0  0  0  0  0  0  0  0  0
    0.6860   -1.3823   -0.0009 C   0  0  0  0  0  0  0  0  0  0  0  0
    1.8833   -0.6911   -0.0012 C   0  0  0  0  0  0  0  0  0  0  0  0
    1.8834    0.6911   -0.0006 C   0  0  0  0  0  0  0  0  0  0  0  0
    0.6860    1.3823    0.0023 C   0  0  0  0  0  0  0  0  0  0  0  0
   -1.8161   -1.4448    0.0010 C   0  0  0  0  0  0  0  0  0  0  0  0
   -1.8160    1.4448   -0.0026 C   0  0  0  0  0  0  0  0  0  0  0  0
    0.6860   -2.4623   -0.0014 H   0  0  0  0  0  0  0  0  0  0  0  0
    2.8187   -1.2311   -0.0016 H   0  0  0  0  0  0  0  0  0  0  0  0
    2.8187    1.2310   -0.0001 H   0  0  0  0  0  0  0  0  0  0  0  0
    0.6860    2.4623    0.0025 H   0  0  0  0  0  0  0  0  0  0  0  0
   -2.1317   -1.6253   -1.0266 H   0  0  0  0  0  0  0  0  0  0  0  0
   -1.6853   -2.3978    0.5136 H   0  0  0  0  0  0  0  0  0  0  0  0
   -2.5752   -0.8563    0.5162 H   0  0  0  0  0  0  0  0  0  0  0  0
   -2.1351    1.6253    1.0239 H   0  0  0  0  0  0  0  0  0  0  0  0
   -1.6835    2.3978   -0.5148 H   0  0  0  0  0  0  0  0  0  0  0  0
   -2.5735    0.8563   -0.5203 H   0  0  0  0  0  0  0  0  0  0  0  0
  1  2  1  0  0  0  0
  2  3  2  0  0  0  0
  3  4  1  0  0  0  0
  4  5  2  0  0  0  0
  5  6  1  0  0  0  0
  1  6  2  0  0  0  0
  2  7  1  0  0  0  0
  1  8  1  0  0  0  0
  3  9  1  0  0  0  0
  4 10  1  0  0  0  0
  5 11  1  0  0  0  0
  6 12  1  0  0  0  0
  7 13  1  0  0  0  0
  7 14  1  0  0  0  0
  7 15  1  0  0  0  0
  8 16  1  0  0  0  0
  8 17  1  0  0  0  0
  8 18  1  0  0  0  0
M  END
$$$$
