C5H12O5
APtclcactv12211716463D 0   0.00000     0.00000
 
 22 21  0  0  0  0  0  0  0  0999 V2000
    2.4953   -0.6625   -0.1339 C   0  0  0  0  0  0  0  0  0  0  0  0
    1.2492    0.1660   -0.4529 C   0  0  2  0  0  0  0  0  0  0  0  0
    1.2952    0.5079   -1.4869 H   0  0  0  0  0  0  0  0  0  0  0  0
    1.1920    1.2958    0.4203 O   0  0  0  0  0  0  0  0  0  0  0  0
   -0.0000   -0.6950   -0.2555 C   0  0  1  0  0  0  0  0  0  0  0  0
   -0.0000   -1.5073   -0.9823 H   0  0  0  0  0  0  0  0  0  0  0  0
    0.0000   -1.2383    1.0662 O   0  0  0  0  0  0  0  0  0  0  0  0
   -1.2492    0.1660   -0.4529 C   0  0  2  0  0  0  0  0  0  0  0  0
   -1.2952    0.5079   -1.4869 H   0  0  0  0  0  0  0  0  0  0  0  0
   -1.1920    1.2958    0.4203 O   0  0  0  0  0  0  0  0  0  0  0  0
   -2.4953   -0.6625   -0.1339 C   0  0  0  0  0  0  0  0  0  0  0  0
   -3.6650    0.1033   -0.4294 O   0  0  0  0  0  0  0  0  0  0  0  0
    3.6650    0.1033   -0.4294 O   0  0  0  0  0  0  0  0  0  0  0  0
    2.4933   -0.9296    0.9228 H   0  0  0  0  0  0  0  0  0  0  0  0
    2.4928   -1.5698   -0.7380 H   0  0  0  0  0  0  0  0  0  0  0  0
    1.1493    1.0659    1.3586 H   0  0  0  0  0  0  0  0  0  0  0  0
    0.0000   -0.5708    1.7659 H   0  0  0  0  0  0  0  0  0  0  0  0
   -1.1493    1.0659    1.3586 H   0  0  0  0  0  0  0  0  0  0  0  0
   -2.4928   -1.5698   -0.7380 H   0  0  0  0  0  0  0  0  0  0  0  0
   -2.4933   -0.9296    0.9228 H   0  0  0  0  0  0  0  0  0  0  0  0
   -4.4944   -0.3607   -0.2508 H   0  0  0  0  0  0  0  0  0  0  0  0
    4.4944   -0.3607   -0.2508 H   0  0  0  0  0  0  0  0  0  0  0  0
  1  2  1  0  0  0  0
  2  3  1  0  0  0  0
  2  4  1  0  0  0  0
  2  5  1  0  0  0  0
  5  6  1  0  0  0  0
  5  7  1  0  0  0  0
  5  8  1  0  0  0  0
  8  9  1  0  0  0  0
  8 10  1  0  0  0  0
  8 11  1  0  0  0  0
 11 12  1  0  0  0  0
  1 13  1  0  0  0  0
  1 14  1  0  0  0  0
  1 15  1  0  0  0  0
  4 16  1  0  0  0  0
  7 17  1  0  0  0  0
 10 18  1  0  0  0  0
 11 19  1  0  0  0  0
 11 20  1  0  0  0  0
 12 21  1  0  0  0  0
 13 22  1  0  0  0  0
M  END
$$$$
