C16H13N3
APtclcactv12211717103D 0   0.00000     0.00000
 
 32 34  0  0  0  0  0  0  0  0999 V2000
    1.9093    1.8071   -0.0074 C   0  0  0  0  0  0  0  0  0  0  0  0
    3.3834   -1.6041    0.0016 C   0  0  0  0  0  0  0  0  0  0  0  0
    4.4328    0.6092   -0.0366 C   0  0  0  0  0  0  0  0  0  0  0  0
    3.0441    2.5633   -0.0332 C   0  0  0  0  0  0  0  0  0  0  0  0
    2.2694   -2.3806    0.0273 C   0  0  0  0  0  0  0  0  0  0  0  0
    4.3011    1.9650   -0.0482 C   0  0  0  0  0  0  0  0  0  0  0  0
   -3.8446   -0.9155   -0.1219 C   0  0  0  0  0  0  0  0  0  0  0  0
   -2.8716    1.2871    0.0861 C   0  0  0  0  0  0  0  0  0  0  0  0
   -5.1033   -0.3524   -0.1052 C   0  0  0  0  0  0  0  0  0  0  0  0
   -4.1368    1.8358    0.1014 C   0  0  0  0  0  0  0  0  0  0  0  0
   -5.2501    1.0193    0.0056 C   0  0  0  0  0  0  0  0  0  0  0  0
   -0.0867   -3.5309   -0.3553 H   0  0  0  0  0  0  0  0  0  0  0  0
   -0.9373   -2.3682    0.5092 H   0  0  0  0  0  0  0  0  0  0  0  0
    0.8173   -0.4375    0.0319 C   0  0  0  0  0  0  0  0  0  0  0  0
    0.9875   -1.8271    0.0428 C   0  0  0  0  0  0  0  0  0  0  0  0
   -2.7155   -0.0973   -0.0260 C   0  0  0  0  0  0  0  0  0  0  0  0
   -0.1238   -2.6589    0.0681 N   0  0  0  0  0  0  0  0  0  0  0  0
   -0.4250    0.1098    0.0472 N   0  0  0  0  0  0  0  0  0  0  0  0
   -1.4649   -0.6483   -0.0414 N   0  0  0  0  0  0  0  0  0  0  0  0
    2.0082    0.4113    0.0047 C   0  0  0  0  0  0  0  0  0  0  0  0
    3.2850   -0.2005   -0.0100 C   0  0  0  0  0  0  0  0  0  0  0  0
    0.9399    2.2830    0.0082 H   0  0  0  0  0  0  0  0  0  0  0  0
    4.3577   -2.0700   -0.0097 H   0  0  0  0  0  0  0  0  0  0  0  0
    5.4144    0.1591   -0.0485 H   0  0  0  0  0  0  0  0  0  0  0  0
    2.9665    3.6404   -0.0425 H   0  0  0  0  0  0  0  0  0  0  0  0
    2.3780   -3.4551    0.0357 H   0  0  0  0  0  0  0  0  0  0  0  0
    5.1851    2.5851   -0.0690 H   0  0  0  0  0  0  0  0  0  0  0  0
   -3.7317   -1.9865   -0.2043 H   0  0  0  0  0  0  0  0  0  0  0  0
   -2.0037    1.9255    0.1602 H   0  0  0  0  0  0  0  0  0  0  0  0
   -5.9767   -0.9833   -0.1792 H   0  0  0  0  0  0  0  0  0  0  0  0
   -4.2590    2.9053    0.1880 H   0  0  0  0  0  0  0  0  0  0  0  0
   -6.2383    1.4547    0.0178 H   0  0  0  0  0  0  0  0  0  0  0  0
 14 20  2  0  0  0  0
 20 21  1  0  0  0  0
  1 20  1  0  0  0  0
 14 18  1  0  0  0  0
 14 15  1  0  0  0  0
  2 21  2  0  0  0  0
  3 21  1  0  0  0  0
  1  4  2  0  0  0  0
 18 19  2  0  0  0  0
  5 15  2  0  0  0  0
 15 17  1  0  0  0  0
  3  6  2  0  0  0  0
 16 19  1  0  0  0  0
  7 16  2  0  0  0  0
  8 16  1  0  0  0  0
  7  9  1  0  0  0  0
  8 10  2  0  0  0  0
  9 11  2  0  0  0  0
  2  5  1  0  0  0  0
  4  6  1  0  0  0  0
 10 11  1  0  0  0  0
  1 22  1  0  0  0  0
  2 23  1  0  0  0  0
  3 24  1  0  0  0  0
  4 25  1  0  0  0  0
  5 26  1  0  0  0  0
 12 17  1  0  0  0  0
 13 17  1  0  0  0  0
  6 27  1  0  0  0  0
  7 28  1  0  0  0  0
  8 29  1  0  0  0  0
  9 30  1  0  0  0  0
 10 31  1  0  0  0  0
 11 32  1  0  0  0  0
M  END
$$$$
