C4H6N2S4Zn
APtclcactv12211716373D 0   0.00000     0.00000
 
 17 15  0  0  0  0  0  0  0  0999 V2000
   -2.6873   -1.0219    0.1205 C   0  0  0  0  0  0  0  0  0  0  0  0
   -3.3856    0.2853   -0.2593 C   0  0  0  0  0  0  0  0  0  0  0  0
   -5.0172   -0.4141    0.9056 H   0  0  0  0  0  0  0  0  0  0  0  0
   -1.0557   -0.3225   -1.0443 H   0  0  0  0  0  0  0  0  0  0  0  0
   -0.5563   -2.1273   -0.2972 C   0  0  0  0  0  0  0  0  0  0  0  0
   -5.5166    1.3906    0.1585 C   0  0  0  0  0  0  0  0  0  0  0  0
   -4.7146    0.3257    0.3560 N   0  0  0  0  0  0  0  0  0  0  0  0
   -1.3583   -1.0623   -0.4948 N   0  0  0  0  0  0  0  0  0  0  0  0
   -4.9824    2.6963   -0.8115 S   0  0  0  0  0  0  0  0  0  0  0  0
   -1.0905   -3.4329    0.6727 S   0  0  0  0  0  0  0  0  0  0  0  0
   -7.0696    1.4378    0.8774 S   0  5  0  0  0  0  0  0  0  0  0  0
    0.9967   -2.1744   -1.0162 S   0  5  0  0  0  0  0  0  0  0  0  0
    9.7692    1.1849    0.2232 Zn  0  2  0  0  0  0  0  0  0  0  0  0
   -2.5877   -1.0791    1.2044 H   0  0  0  0  0  0  0  0  0  0  0  0
   -3.2781   -1.8661   -0.2352 H   0  0  0  0  0  0  0  0  0  0  0  0
   -2.7948    1.1295    0.0964 H   0  0  0  0  0  0  0  0  0  0  0  0
   -3.4852    0.3425   -1.3432 H   0  0  0  0  0  0  0  0  0  0  0  0
  1  2  1  0  0  0  0
  2  7  1  0  0  0  0
  1  8  1  0  0  0  0
  5  8  1  0  0  0  0
  6  7  1  0  0  0  0
  6 11  1  0  0  0  0
  6  9  2  0  0  0  0
  5 10  2  0  0  0  0
  5 12  1  0  0  0  0
  1 14  1  0  0  0  0
  1 15  1  0  0  0  0
  2 16  1  0  0  0  0
  2 17  1  0  0  0  0
  3  7  1  0  0  0  0
  4  8  1  0  0  0  0
M  CHG  3  11  -1  12  -1  13   2
M  END
$$$$
